Version 4
SHEET 1 109444 42780
WIRE 6592 -2000 6576 -2000
WIRE 8784 -2000 8768 -2000
WIRE 9696 -2000 9680 -2000
WIRE 6576 -1984 6576 -2000
WIRE 6576 -1984 6496 -1984
WIRE 8768 -1984 8768 -2000
WIRE 8768 -1984 8688 -1984
WIRE 9680 -1984 9680 -2000
WIRE 9680 -1984 9600 -1984
WIRE 6576 -1952 6576 -1984
WIRE 8768 -1952 8768 -1984
WIRE 9680 -1952 9680 -1984
WIRE 6752 -1936 6736 -1936
WIRE 8944 -1936 8928 -1936
WIRE 9856 -1936 9840 -1936
WIRE 6736 -1920 6736 -1936
WIRE 6736 -1920 6672 -1920
WIRE 6848 -1920 6736 -1920
WIRE 8928 -1920 8928 -1936
WIRE 8928 -1920 8864 -1920
WIRE 9040 -1920 8928 -1920
WIRE 9840 -1920 9840 -1936
WIRE 9840 -1920 9776 -1920
WIRE 9952 -1920 9840 -1920
WIRE 6848 -1904 6848 -1920
WIRE 9040 -1904 9040 -1920
WIRE 9952 -1904 9952 -1920
WIRE 6496 -1888 6496 -1904
WIRE 6496 -1888 6480 -1888
WIRE 6528 -1888 6496 -1888
WIRE 8688 -1888 8688 -1904
WIRE 8688 -1888 8672 -1888
WIRE 8720 -1888 8688 -1888
WIRE 9600 -1888 9600 -1904
WIRE 9600 -1888 9520 -1888
WIRE 9632 -1888 9600 -1888
WIRE 6800 -1840 6672 -1840
WIRE 8992 -1840 8864 -1840
WIRE 9904 -1840 9776 -1840
WIRE 6608 -1776 6576 -1776
WIRE 6624 -1776 6608 -1776
WIRE 8800 -1776 8768 -1776
WIRE 8816 -1776 8800 -1776
WIRE 9728 -1776 9680 -1776
WIRE 6928 -1728 6848 -1728
WIRE 9120 -1728 9040 -1728
WIRE 10032 -1728 9952 -1728
WIRE 6576 -1696 6560 -1696
WIRE 6608 -1696 6608 -1776
WIRE 6928 -1696 6608 -1696
WIRE 8768 -1696 8752 -1696
WIRE 8800 -1696 8800 -1776
WIRE 9120 -1696 8800 -1696
WIRE 9680 -1696 9664 -1696
WIRE 7008 -1664 6464 -1664
WIRE 7984 -1664 7008 -1664
WIRE 9200 -1664 8656 -1664
WIRE 10176 -1664 9200 -1664
WIRE 6480 -1632 6464 -1632
WIRE 7360 -1632 6496 -1632
WIRE 8336 -1632 7472 -1632
WIRE 8672 -1632 8656 -1632
WIRE 9552 -1632 8688 -1632
WIRE 10528 -1632 9664 -1632
WIRE 7216 -1616 7200 -1616
WIRE 8192 -1616 8176 -1616
WIRE 9408 -1616 9392 -1616
WIRE 10384 -1616 10368 -1616
WIRE 7200 -1600 7200 -1616
WIRE 7200 -1600 7120 -1600
WIRE 7296 -1600 7200 -1600
WIRE 8176 -1600 8176 -1616
WIRE 8176 -1600 8096 -1600
WIRE 8272 -1600 8176 -1600
WIRE 9392 -1600 9392 -1616
WIRE 9392 -1600 9312 -1600
WIRE 9488 -1600 9392 -1600
WIRE 10368 -1600 10368 -1616
WIRE 10368 -1600 10288 -1600
WIRE 10464 -1600 10368 -1600
WIRE 7296 -1568 7296 -1600
WIRE 8272 -1568 8272 -1600
WIRE 9488 -1568 9488 -1600
WIRE 10464 -1568 10464 -1600
WIRE 7120 -1504 7120 -1520
WIRE 7200 -1504 7120 -1504
WIRE 7248 -1504 7200 -1504
WIRE 8096 -1504 8096 -1520
WIRE 8176 -1504 8096 -1504
WIRE 8224 -1504 8176 -1504
WIRE 9312 -1504 9312 -1520
WIRE 9392 -1504 9312 -1504
WIRE 9440 -1504 9392 -1504
WIRE 10288 -1504 10288 -1520
WIRE 10368 -1504 10288 -1504
WIRE 10416 -1504 10368 -1504
WIRE 7120 -1488 7120 -1504
WIRE 8096 -1488 8096 -1504
WIRE 9312 -1488 9312 -1504
WIRE 10288 -1488 10288 -1504
WIRE 7072 -1424 6768 -1424
WIRE 7200 -1424 7200 -1504
WIRE 8048 -1424 7744 -1424
WIRE 8176 -1424 8176 -1504
WIRE 9264 -1424 8960 -1424
WIRE 9392 -1424 9392 -1504
WIRE 10240 -1424 9936 -1424
WIRE 10368 -1424 10368 -1504
WIRE 7296 -1392 7280 -1392
WIRE 8272 -1392 8256 -1392
WIRE 9488 -1392 9472 -1392
WIRE 10464 -1392 10448 -1392
WIRE 7264 -1360 7248 -1360
WIRE 8240 -1360 8224 -1360
WIRE 9456 -1360 9440 -1360
WIRE 10432 -1360 10416 -1360
WIRE 6640 -1344 6624 -1344
WIRE 7616 -1344 7600 -1344
WIRE 8832 -1344 8816 -1344
WIRE 9808 -1344 9792 -1344
WIRE 6624 -1328 6624 -1344
WIRE 6624 -1328 6544 -1328
WIRE 6720 -1328 6624 -1328
WIRE 7600 -1328 7600 -1344
WIRE 7600 -1328 7520 -1328
WIRE 7696 -1328 7600 -1328
WIRE 8816 -1328 8816 -1344
WIRE 8816 -1328 8736 -1328
WIRE 8912 -1328 8816 -1328
WIRE 9792 -1328 9792 -1344
WIRE 9792 -1328 9712 -1328
WIRE 9888 -1328 9792 -1328
WIRE 7200 -1312 7200 -1328
WIRE 8176 -1312 8176 -1328
WIRE 9392 -1312 9392 -1328
WIRE 10368 -1312 10368 -1328
WIRE 6720 -1296 6720 -1328
WIRE 7296 -1296 7296 -1312
WIRE 7312 -1296 7296 -1296
WIRE 7696 -1296 7696 -1328
WIRE 8272 -1296 8272 -1312
WIRE 8288 -1296 8272 -1296
WIRE 8912 -1296 8912 -1328
WIRE 9488 -1296 9488 -1312
WIRE 9504 -1296 9488 -1296
WIRE 9888 -1296 9888 -1328
WIRE 10464 -1296 10464 -1312
WIRE 10480 -1296 10464 -1296
WIRE 6896 -1280 6880 -1280
WIRE 7872 -1280 7856 -1280
WIRE 9088 -1280 9072 -1280
WIRE 10064 -1280 10048 -1280
WIRE 6880 -1264 6880 -1280
WIRE 6880 -1264 6816 -1264
WIRE 6992 -1264 6880 -1264
WIRE 7072 -1264 7072 -1328
WIRE 7280 -1264 7280 -1392
WIRE 7360 -1264 7360 -1632
WIRE 7360 -1264 7280 -1264
WIRE 7392 -1264 7360 -1264
WIRE 7856 -1264 7856 -1280
WIRE 7856 -1264 7792 -1264
WIRE 7968 -1264 7856 -1264
WIRE 8048 -1264 8048 -1328
WIRE 8256 -1264 8256 -1392
WIRE 8336 -1264 8336 -1632
WIRE 8336 -1264 8256 -1264
WIRE 8368 -1264 8336 -1264
WIRE 9072 -1264 9072 -1280
WIRE 9072 -1264 9008 -1264
WIRE 9184 -1264 9072 -1264
WIRE 9264 -1264 9264 -1328
WIRE 9472 -1264 9472 -1392
WIRE 9552 -1264 9552 -1632
WIRE 9552 -1264 9472 -1264
WIRE 9584 -1264 9552 -1264
WIRE 10048 -1264 10048 -1280
WIRE 10048 -1264 9984 -1264
WIRE 10160 -1264 10048 -1264
WIRE 10240 -1264 10240 -1328
WIRE 10448 -1264 10448 -1392
WIRE 10528 -1264 10528 -1632
WIRE 10528 -1264 10448 -1264
WIRE 10560 -1264 10528 -1264
WIRE 6992 -1248 6992 -1264
WIRE 7968 -1248 7968 -1264
WIRE 9184 -1248 9184 -1264
WIRE 10160 -1248 10160 -1264
WIRE 6544 -1232 6544 -1248
WIRE 6624 -1232 6544 -1232
WIRE 6672 -1232 6624 -1232
WIRE 7264 -1232 7264 -1360
WIRE 7392 -1232 7264 -1232
WIRE 7520 -1232 7520 -1248
WIRE 7600 -1232 7520 -1232
WIRE 7648 -1232 7600 -1232
WIRE 8240 -1232 8240 -1360
WIRE 8368 -1232 8240 -1232
WIRE 8736 -1232 8736 -1248
WIRE 8816 -1232 8736 -1232
WIRE 8864 -1232 8816 -1232
WIRE 9456 -1232 9456 -1360
WIRE 9584 -1232 9456 -1232
WIRE 9712 -1232 9712 -1248
WIRE 9792 -1232 9712 -1232
WIRE 9840 -1232 9792 -1232
WIRE 10432 -1232 10432 -1360
WIRE 10560 -1232 10432 -1232
WIRE 6544 -1216 6544 -1232
WIRE 7312 -1216 7296 -1216
WIRE 7520 -1216 7520 -1232
WIRE 8288 -1216 8272 -1216
WIRE 8736 -1216 8736 -1232
WIRE 9504 -1216 9488 -1216
WIRE 9712 -1216 9712 -1232
WIRE 10480 -1216 10464 -1216
WIRE 7072 -1200 7072 -1264
WIRE 7200 -1200 7200 -1216
WIRE 8048 -1200 8048 -1264
WIRE 8176 -1200 8176 -1216
WIRE 9264 -1200 9264 -1264
WIRE 9392 -1200 9392 -1216
WIRE 10240 -1200 10240 -1264
WIRE 10368 -1200 10368 -1216
WIRE 6944 -1184 6816 -1184
WIRE 7920 -1184 7792 -1184
WIRE 9136 -1184 9008 -1184
WIRE 10112 -1184 9984 -1184
WIRE 7280 -1168 7280 -1264
WIRE 7280 -1168 7248 -1168
WIRE 8256 -1168 8256 -1264
WIRE 8256 -1168 8224 -1168
WIRE 9472 -1168 9472 -1264
WIRE 9472 -1168 9440 -1168
WIRE 10448 -1168 10448 -1264
WIRE 10448 -1168 10416 -1168
WIRE 6496 -1152 6496 -1632
WIRE 6624 -1152 6624 -1232
WIRE 7472 -1152 7472 -1632
WIRE 7600 -1152 7600 -1232
WIRE 8688 -1152 8688 -1632
WIRE 8816 -1152 8816 -1232
WIRE 9664 -1152 9664 -1632
WIRE 9792 -1152 9792 -1232
WIRE 7264 -1136 7264 -1232
WIRE 7296 -1136 7264 -1136
WIRE 8240 -1136 8240 -1232
WIRE 8272 -1136 8240 -1136
WIRE 9456 -1136 9456 -1232
WIRE 9488 -1136 9456 -1136
WIRE 10432 -1136 10432 -1232
WIRE 10464 -1136 10432 -1136
WIRE 6768 -1120 6768 -1424
WIRE 6768 -1120 6720 -1120
WIRE 7744 -1120 7744 -1424
WIRE 7744 -1120 7696 -1120
WIRE 8960 -1120 8960 -1424
WIRE 8960 -1120 8912 -1120
WIRE 9936 -1120 9936 -1424
WIRE 9936 -1120 9888 -1120
WIRE 7072 -1104 7056 -1104
WIRE 8048 -1104 8032 -1104
WIRE 9264 -1104 9248 -1104
WIRE 10240 -1104 10224 -1104
WIRE 6576 -1088 6432 -1088
WIRE 7552 -1088 7408 -1088
WIRE 8768 -1088 8624 -1088
WIRE 9744 -1088 9600 -1088
WIRE 7056 -1072 7056 -1104
WIRE 7056 -1072 6992 -1072
WIRE 8032 -1072 8032 -1104
WIRE 8032 -1072 7968 -1072
WIRE 9248 -1072 9248 -1104
WIRE 9248 -1072 9184 -1072
WIRE 10224 -1072 10224 -1104
WIRE 10224 -1072 10160 -1072
WIRE 6480 -1056 6480 -1632
WIRE 6496 -1056 6480 -1056
WIRE 7472 -1056 7456 -1056
WIRE 8672 -1056 8672 -1632
WIRE 8688 -1056 8672 -1056
WIRE 9664 -1056 9648 -1056
WIRE 12192 -1056 12144 -1056
WIRE 12480 -1056 12192 -1056
WIRE 12496 -1056 12480 -1056
WIRE 6720 -1040 6704 -1040
WIRE 7696 -1040 7680 -1040
WIRE 8912 -1040 8896 -1040
WIRE 9888 -1040 9872 -1040
WIRE 13024 -1040 12976 -1040
WIRE 13312 -1040 13024 -1040
WIRE 13328 -1040 13312 -1040
WIRE 7120 -1024 7120 -1040
WIRE 7200 -1024 7200 -1104
WIRE 7200 -1024 7120 -1024
WIRE 7248 -1024 7200 -1024
WIRE 8096 -1024 8096 -1040
WIRE 8176 -1024 8176 -1104
WIRE 8176 -1024 8096 -1024
WIRE 8224 -1024 8176 -1024
WIRE 9312 -1024 9312 -1040
WIRE 9392 -1024 9392 -1104
WIRE 9392 -1024 9312 -1024
WIRE 9440 -1024 9392 -1024
WIRE 10288 -1024 10288 -1040
WIRE 10368 -1024 10368 -1104
WIRE 10368 -1024 10288 -1024
WIRE 10416 -1024 10368 -1024
WIRE 11424 -1024 11376 -1024
WIRE 11712 -1024 11424 -1024
WIRE 11728 -1024 11712 -1024
WIRE 7120 -1008 7120 -1024
WIRE 8096 -1008 8096 -1024
WIRE 9312 -1008 9312 -1024
WIRE 10288 -1008 10288 -1024
WIRE 7008 -992 7008 -1664
WIRE 7008 -992 6672 -992
WIRE 7984 -992 7984 -1664
WIRE 7984 -992 7648 -992
WIRE 9200 -992 9200 -1664
WIRE 9200 -992 8864 -992
WIRE 10176 -992 10176 -1664
WIRE 10176 -992 9840 -992
WIRE 12192 -960 12144 -960
WIRE 12496 -960 12448 -960
WIRE 13024 -944 12976 -944
WIRE 13328 -944 13280 -944
WIRE 7200 -928 7120 -928
WIRE 7296 -928 7296 -960
WIRE 7296 -928 7200 -928
WIRE 8176 -928 8096 -928
WIRE 8272 -928 8272 -960
WIRE 8272 -928 8176 -928
WIRE 9392 -928 9312 -928
WIRE 9488 -928 9488 -960
WIRE 9488 -928 9392 -928
WIRE 10368 -928 10288 -928
WIRE 10464 -928 10464 -960
WIRE 10464 -928 10368 -928
WIRE 11424 -928 11376 -928
WIRE 11728 -928 11680 -928
WIRE 7200 -912 7200 -928
WIRE 7216 -912 7200 -912
WIRE 8176 -912 8176 -928
WIRE 8192 -912 8176 -912
WIRE 9392 -912 9392 -928
WIRE 9408 -912 9392 -912
WIRE 10368 -912 10368 -928
WIRE 10384 -912 10368 -912
WIRE 6480 -896 6480 -1056
WIRE 7456 -896 7456 -1056
WIRE 7456 -896 6480 -896
WIRE 8672 -896 8672 -1056
WIRE 9648 -896 9648 -1056
WIRE 9648 -896 8672 -896
WIRE 7360 -864 6496 -864
WIRE 8336 -864 7472 -864
WIRE 9552 -864 8688 -864
WIRE 10528 -864 9664 -864
WIRE 7216 -848 7200 -848
WIRE 8192 -848 8176 -848
WIRE 9408 -848 9392 -848
WIRE 10384 -848 10368 -848
WIRE 7200 -832 7200 -848
WIRE 7200 -832 7120 -832
WIRE 7296 -832 7200 -832
WIRE 8176 -832 8176 -848
WIRE 8176 -832 8096 -832
WIRE 8272 -832 8176 -832
WIRE 9392 -832 9392 -848
WIRE 9392 -832 9312 -832
WIRE 9488 -832 9392 -832
WIRE 10368 -832 10368 -848
WIRE 10368 -832 10288 -832
WIRE 10464 -832 10368 -832
WIRE 7296 -800 7296 -832
WIRE 8272 -800 8272 -832
WIRE 9488 -800 9488 -832
WIRE 10464 -800 10464 -832
WIRE 12480 -752 12480 -1056
WIRE 12480 -752 12192 -752
WIRE 12496 -752 12480 -752
WIRE 7120 -736 7120 -752
WIRE 7200 -736 7120 -736
WIRE 7248 -736 7200 -736
WIRE 8096 -736 8096 -752
WIRE 8176 -736 8096 -736
WIRE 8224 -736 8176 -736
WIRE 9312 -736 9312 -752
WIRE 9392 -736 9312 -736
WIRE 9440 -736 9392 -736
WIRE 10288 -736 10288 -752
WIRE 10368 -736 10288 -736
WIRE 10416 -736 10368 -736
WIRE 13312 -736 13312 -1040
WIRE 13312 -736 13024 -736
WIRE 13328 -736 13312 -736
WIRE 7120 -720 7120 -736
WIRE 8096 -720 8096 -736
WIRE 9312 -720 9312 -736
WIRE 10288 -720 10288 -736
WIRE 11712 -720 11712 -1024
WIRE 11712 -720 11424 -720
WIRE 11728 -720 11712 -720
WIRE 7072 -656 6768 -656
WIRE 7200 -656 7200 -736
WIRE 8048 -656 7744 -656
WIRE 8176 -656 8176 -736
WIRE 9264 -656 8960 -656
WIRE 9392 -656 9392 -736
WIRE 10240 -656 9936 -656
WIRE 10368 -656 10368 -736
WIRE 12192 -656 12144 -656
WIRE 12496 -656 12448 -656
WIRE 13024 -640 12976 -640
WIRE 13328 -640 13280 -640
WIRE 7296 -624 7280 -624
WIRE 8272 -624 8256 -624
WIRE 9488 -624 9472 -624
WIRE 10464 -624 10448 -624
WIRE 11424 -624 11376 -624
WIRE 11728 -624 11680 -624
WIRE 7264 -592 7248 -592
WIRE 8240 -592 8224 -592
WIRE 9456 -592 9440 -592
WIRE 10432 -592 10416 -592
WIRE 6640 -576 6624 -576
WIRE 7616 -576 7600 -576
WIRE 8832 -576 8816 -576
WIRE 9808 -576 9792 -576
WIRE 6624 -560 6624 -576
WIRE 6624 -560 6544 -560
WIRE 6720 -560 6624 -560
WIRE 7600 -560 7600 -576
WIRE 7600 -560 7520 -560
WIRE 7696 -560 7600 -560
WIRE 8816 -560 8816 -576
WIRE 8816 -560 8736 -560
WIRE 8912 -560 8816 -560
WIRE 9792 -560 9792 -576
WIRE 9792 -560 9712 -560
WIRE 9888 -560 9792 -560
WIRE 7200 -544 7200 -560
WIRE 8176 -544 8176 -560
WIRE 9392 -544 9392 -560
WIRE 10368 -544 10368 -560
WIRE 6720 -528 6720 -560
WIRE 7296 -528 7296 -544
WIRE 7312 -528 7296 -528
WIRE 7696 -528 7696 -560
WIRE 8272 -528 8272 -544
WIRE 8288 -528 8272 -528
WIRE 8912 -528 8912 -560
WIRE 9488 -528 9488 -544
WIRE 9504 -528 9488 -528
WIRE 9888 -528 9888 -560
WIRE 10464 -528 10464 -544
WIRE 10480 -528 10464 -528
WIRE 6896 -512 6880 -512
WIRE 7872 -512 7856 -512
WIRE 9088 -512 9072 -512
WIRE 10064 -512 10048 -512
WIRE 6880 -496 6880 -512
WIRE 6880 -496 6816 -496
WIRE 6992 -496 6880 -496
WIRE 7072 -496 7072 -560
WIRE 7280 -496 7280 -624
WIRE 7360 -496 7360 -864
WIRE 7360 -496 7280 -496
WIRE 7392 -496 7360 -496
WIRE 7856 -496 7856 -512
WIRE 7856 -496 7792 -496
WIRE 7968 -496 7856 -496
WIRE 8048 -496 8048 -560
WIRE 8256 -496 8256 -624
WIRE 8336 -496 8336 -864
WIRE 8336 -496 8256 -496
WIRE 8368 -496 8336 -496
WIRE 9072 -496 9072 -512
WIRE 9072 -496 9008 -496
WIRE 9184 -496 9072 -496
WIRE 9264 -496 9264 -560
WIRE 9472 -496 9472 -624
WIRE 9552 -496 9552 -864
WIRE 9552 -496 9472 -496
WIRE 9584 -496 9552 -496
WIRE 10048 -496 10048 -512
WIRE 10048 -496 9984 -496
WIRE 10160 -496 10048 -496
WIRE 10240 -496 10240 -560
WIRE 10448 -496 10448 -624
WIRE 10528 -496 10528 -864
WIRE 10528 -496 10448 -496
WIRE 10560 -496 10528 -496
WIRE 6992 -480 6992 -496
WIRE 7968 -480 7968 -496
WIRE 9184 -480 9184 -496
WIRE 10160 -480 10160 -496
WIRE 6544 -464 6544 -480
WIRE 6624 -464 6544 -464
WIRE 6672 -464 6624 -464
WIRE 7264 -464 7264 -592
WIRE 7392 -464 7264 -464
WIRE 7520 -464 7520 -480
WIRE 7600 -464 7520 -464
WIRE 7648 -464 7600 -464
WIRE 8240 -464 8240 -592
WIRE 8368 -464 8240 -464
WIRE 8736 -464 8736 -480
WIRE 8816 -464 8736 -464
WIRE 8864 -464 8816 -464
WIRE 9456 -464 9456 -592
WIRE 9584 -464 9456 -464
WIRE 9712 -464 9712 -480
WIRE 9792 -464 9712 -464
WIRE 9840 -464 9792 -464
WIRE 10432 -464 10432 -592
WIRE 10560 -464 10432 -464
WIRE 6544 -448 6544 -464
WIRE 7312 -448 7296 -448
WIRE 7520 -448 7520 -464
WIRE 8288 -448 8272 -448
WIRE 8736 -448 8736 -464
WIRE 9504 -448 9488 -448
WIRE 9712 -448 9712 -464
WIRE 10480 -448 10464 -448
WIRE 7072 -432 7072 -496
WIRE 7200 -432 7200 -448
WIRE 8048 -432 8048 -496
WIRE 8176 -432 8176 -448
WIRE 9264 -432 9264 -496
WIRE 9392 -432 9392 -448
WIRE 10240 -432 10240 -496
WIRE 10368 -432 10368 -448
WIRE 6944 -416 6816 -416
WIRE 7920 -416 7792 -416
WIRE 9136 -416 9008 -416
WIRE 10112 -416 9984 -416
WIRE 7280 -400 7280 -496
WIRE 7280 -400 7248 -400
WIRE 8256 -400 8256 -496
WIRE 8256 -400 8224 -400
WIRE 9472 -400 9472 -496
WIRE 9472 -400 9440 -400
WIRE 10448 -400 10448 -496
WIRE 10448 -400 10416 -400
WIRE 6496 -384 6496 -864
WIRE 6624 -384 6624 -464
WIRE 7472 -384 7472 -864
WIRE 7600 -384 7600 -464
WIRE 8688 -384 8688 -864
WIRE 8816 -384 8816 -464
WIRE 9664 -384 9664 -864
WIRE 9792 -384 9792 -464
WIRE 7264 -368 7264 -464
WIRE 7296 -368 7264 -368
WIRE 8240 -368 8240 -464
WIRE 8272 -368 8240 -368
WIRE 9456 -368 9456 -464
WIRE 9488 -368 9456 -368
WIRE 10432 -368 10432 -464
WIRE 10464 -368 10432 -368
WIRE 6768 -352 6768 -656
WIRE 6768 -352 6720 -352
WIRE 7744 -352 7744 -656
WIRE 7744 -352 7696 -352
WIRE 8960 -352 8960 -656
WIRE 8960 -352 8912 -352
WIRE 9936 -352 9936 -656
WIRE 9936 -352 9888 -352
WIRE 7072 -336 7056 -336
WIRE 8048 -336 8032 -336
WIRE 9264 -336 9248 -336
WIRE 10240 -336 10224 -336
WIRE 6576 -320 6432 -320
WIRE 7552 -320 7408 -320
WIRE 8768 -320 8624 -320
WIRE 9744 -320 9600 -320
WIRE 7056 -304 7056 -336
WIRE 7056 -304 6992 -304
WIRE 8032 -304 8032 -336
WIRE 8032 -304 7968 -304
WIRE 9248 -304 9248 -336
WIRE 9248 -304 9184 -304
WIRE 10224 -304 10224 -336
WIRE 10224 -304 10160 -304
WIRE 6480 -288 6480 -896
WIRE 6496 -288 6480 -288
WIRE 7456 -288 7456 -896
WIRE 7472 -288 7456 -288
WIRE 8672 -288 8672 -896
WIRE 8688 -288 8672 -288
WIRE 9648 -288 9648 -896
WIRE 9664 -288 9648 -288
WIRE 6720 -272 6704 -272
WIRE 7696 -272 7680 -272
WIRE 8912 -272 8896 -272
WIRE 9888 -272 9872 -272
WIRE 7120 -256 7120 -272
WIRE 7200 -256 7200 -336
WIRE 7200 -256 7120 -256
WIRE 7248 -256 7200 -256
WIRE 8096 -256 8096 -272
WIRE 8176 -256 8176 -336
WIRE 8176 -256 8096 -256
WIRE 8224 -256 8176 -256
WIRE 9312 -256 9312 -272
WIRE 9392 -256 9392 -336
WIRE 9392 -256 9312 -256
WIRE 9440 -256 9392 -256
WIRE 10288 -256 10288 -272
WIRE 10368 -256 10368 -336
WIRE 10368 -256 10288 -256
WIRE 10416 -256 10368 -256
WIRE 7120 -240 7120 -256
WIRE 8096 -240 8096 -256
WIRE 9312 -240 9312 -256
WIRE 10288 -240 10288 -256
WIRE 7008 -224 7008 -992
WIRE 7008 -224 6672 -224
WIRE 7984 -224 7984 -992
WIRE 7984 -224 7648 -224
WIRE 9200 -224 9200 -992
WIRE 9200 -224 8864 -224
WIRE 10176 -224 10176 -992
WIRE 10176 -224 9840 -224
WIRE 7200 -160 7120 -160
WIRE 7296 -160 7296 -192
WIRE 7296 -160 7200 -160
WIRE 8176 -160 8096 -160
WIRE 8272 -160 8272 -192
WIRE 8272 -160 8176 -160
WIRE 9392 -160 9312 -160
WIRE 9488 -160 9488 -192
WIRE 9488 -160 9392 -160
WIRE 10368 -160 10288 -160
WIRE 10464 -160 10464 -192
WIRE 10464 -160 10368 -160
WIRE 7200 -144 7200 -160
WIRE 7216 -144 7200 -144
WIRE 8176 -144 8176 -160
WIRE 8192 -144 8176 -144
WIRE 9392 -144 9392 -160
WIRE 9408 -144 9392 -144
WIRE 10368 -144 10368 -160
WIRE 10384 -144 10368 -144
WIRE 8880 176 8864 176
WIRE 9792 176 9776 176
WIRE 6736 192 6720 192
WIRE 7648 192 7632 192
WIRE 8864 192 8864 176
WIRE 8864 192 8784 192
WIRE 9776 192 9776 176
WIRE 9776 192 9696 192
WIRE 6720 208 6720 192
WIRE 6720 208 6640 208
WIRE 7632 208 7632 192
WIRE 7632 208 7552 208
WIRE 8864 224 8864 192
WIRE 9776 224 9776 192
WIRE 6720 240 6720 208
WIRE 7632 240 7632 208
WIRE 9040 240 9024 240
WIRE 9952 240 9936 240
WIRE 6896 256 6880 256
WIRE 7808 256 7792 256
WIRE 9024 256 9024 240
WIRE 9024 256 8960 256
WIRE 9136 256 9024 256
WIRE 9936 256 9936 240
WIRE 9936 256 9872 256
WIRE 10048 256 9936 256
WIRE 6880 272 6880 256
WIRE 6880 272 6816 272
WIRE 6992 272 6880 272
WIRE 7792 272 7792 256
WIRE 7792 272 7728 272
WIRE 7904 272 7792 272
WIRE 9136 272 9136 256
WIRE 10048 272 10048 256
WIRE 6992 288 6992 272
WIRE 7904 288 7904 272
WIRE 8784 288 8784 272
WIRE 8784 288 8768 288
WIRE 8816 288 8784 288
WIRE 9696 288 9696 272
WIRE 9696 288 9616 288
WIRE 9728 288 9696 288
WIRE 6640 304 6640 288
WIRE 6640 304 6624 304
WIRE 6672 304 6640 304
WIRE 7552 304 7552 288
WIRE 7552 304 7472 304
WIRE 7584 304 7552 304
WIRE 9088 336 8960 336
WIRE 10000 336 9872 336
WIRE 6944 352 6816 352
WIRE 7856 352 7728 352
WIRE 8896 400 8864 400
WIRE 8912 400 8896 400
WIRE 9824 400 9776 400
WIRE 6752 416 6720 416
WIRE 6768 416 6752 416
WIRE 7680 416 7632 416
WIRE 9216 448 9136 448
WIRE 10128 448 10048 448
WIRE 7072 464 6992 464
WIRE 7984 464 7904 464
WIRE 8864 480 8848 480
WIRE 8896 480 8896 400
WIRE 9216 480 8896 480
WIRE 9776 480 9760 480
WIRE 6720 496 6704 496
WIRE 6752 496 6752 416
WIRE 7072 496 6752 496
WIRE 7632 496 7616 496
WIRE 9296 512 8752 512
WIRE 10272 512 9296 512
WIRE 7152 528 6608 528
WIRE 8128 528 7152 528
WIRE 8768 544 8752 544
WIRE 9648 544 8784 544
WIRE 10624 544 9760 544
WIRE 6624 560 6608 560
WIRE 7504 560 6640 560
WIRE 8480 560 7616 560
WIRE 9504 560 9488 560
WIRE 10480 560 10464 560
WIRE 7360 576 7344 576
WIRE 8336 576 8320 576
WIRE 9488 576 9488 560
WIRE 9488 576 9408 576
WIRE 9584 576 9488 576
WIRE 10464 576 10464 560
WIRE 10464 576 10384 576
WIRE 10560 576 10464 576
WIRE 7344 592 7344 576
WIRE 7344 592 7264 592
WIRE 7440 592 7344 592
WIRE 8320 592 8320 576
WIRE 8320 592 8240 592
WIRE 8416 592 8320 592
WIRE 9584 608 9584 576
WIRE 10560 608 10560 576
WIRE 7440 624 7440 592
WIRE 8416 624 8416 592
WIRE 9408 672 9408 656
WIRE 9488 672 9408 672
WIRE 9536 672 9488 672
WIRE 10384 672 10384 656
WIRE 10464 672 10384 672
WIRE 10512 672 10464 672
WIRE 7264 688 7264 672
WIRE 7344 688 7264 688
WIRE 7392 688 7344 688
WIRE 8240 688 8240 672
WIRE 8320 688 8240 688
WIRE 8368 688 8320 688
WIRE 9408 688 9408 672
WIRE 10384 688 10384 672
WIRE 7264 704 7264 688
WIRE 8240 704 8240 688
WIRE 9360 752 9056 752
WIRE 9488 752 9488 672
WIRE 10336 752 10032 752
WIRE 10464 752 10464 672
WIRE 7216 768 6912 768
WIRE 7344 768 7344 688
WIRE 8192 768 7888 768
WIRE 8320 768 8320 688
WIRE 9584 784 9568 784
WIRE 10560 784 10544 784
WIRE 7440 800 7424 800
WIRE 8416 800 8400 800
WIRE 9552 816 9536 816
WIRE 10528 816 10512 816
WIRE 7408 832 7392 832
WIRE 8384 832 8368 832
WIRE 8928 832 8912 832
WIRE 9904 832 9888 832
WIRE 6784 848 6768 848
WIRE 7760 848 7744 848
WIRE 8912 848 8912 832
WIRE 8912 848 8832 848
WIRE 9008 848 8912 848
WIRE 9888 848 9888 832
WIRE 9888 848 9808 848
WIRE 9984 848 9888 848
WIRE 6768 864 6768 848
WIRE 6768 864 6688 864
WIRE 6864 864 6768 864
WIRE 7744 864 7744 848
WIRE 7744 864 7664 864
WIRE 7840 864 7744 864
WIRE 9488 864 9488 848
WIRE 10464 864 10464 848
WIRE 7344 880 7344 864
WIRE 8320 880 8320 864
WIRE 9008 880 9008 848
WIRE 9584 880 9584 864
WIRE 9600 880 9584 880
WIRE 9984 880 9984 848
WIRE 10560 880 10560 864
WIRE 10576 880 10560 880
WIRE 6864 896 6864 864
WIRE 7440 896 7440 880
WIRE 7456 896 7440 896
WIRE 7840 896 7840 864
WIRE 8416 896 8416 880
WIRE 8432 896 8416 896
WIRE 9184 896 9168 896
WIRE 10160 896 10144 896
WIRE 7040 912 7024 912
WIRE 8016 912 8000 912
WIRE 9168 912 9168 896
WIRE 9168 912 9104 912
WIRE 9280 912 9168 912
WIRE 9360 912 9360 848
WIRE 9568 912 9568 784
WIRE 9648 912 9648 544
WIRE 9648 912 9568 912
WIRE 9680 912 9648 912
WIRE 10144 912 10144 896
WIRE 10144 912 10080 912
WIRE 10256 912 10144 912
WIRE 10336 912 10336 848
WIRE 10544 912 10544 784
WIRE 10624 912 10624 544
WIRE 10624 912 10544 912
WIRE 10656 912 10624 912
WIRE 7024 928 7024 912
WIRE 7024 928 6960 928
WIRE 7136 928 7024 928
WIRE 7216 928 7216 864
WIRE 7424 928 7424 800
WIRE 7504 928 7504 560
WIRE 7504 928 7424 928
WIRE 7536 928 7504 928
WIRE 8000 928 8000 912
WIRE 8000 928 7936 928
WIRE 8112 928 8000 928
WIRE 8192 928 8192 864
WIRE 8400 928 8400 800
WIRE 8480 928 8480 560
WIRE 8480 928 8400 928
WIRE 8512 928 8480 928
WIRE 9280 928 9280 912
WIRE 10256 928 10256 912
WIRE 7136 944 7136 928
WIRE 8112 944 8112 928
WIRE 8832 944 8832 928
WIRE 8912 944 8832 944
WIRE 8960 944 8912 944
WIRE 9552 944 9552 816
WIRE 9680 944 9552 944
WIRE 9808 944 9808 928
WIRE 9888 944 9808 944
WIRE 9936 944 9888 944
WIRE 10528 944 10528 816
WIRE 10656 944 10528 944
WIRE 6688 960 6688 944
WIRE 6768 960 6688 960
WIRE 6816 960 6768 960
WIRE 7408 960 7408 832
WIRE 7536 960 7408 960
WIRE 7664 960 7664 944
WIRE 7744 960 7664 960
WIRE 7792 960 7744 960
WIRE 8384 960 8384 832
WIRE 8512 960 8384 960
WIRE 8832 960 8832 944
WIRE 9600 960 9584 960
WIRE 9808 960 9808 944
WIRE 10576 960 10560 960
WIRE 6688 976 6688 960
WIRE 7456 976 7440 976
WIRE 7664 976 7664 960
WIRE 8432 976 8416 976
WIRE 9360 976 9360 912
WIRE 9488 976 9488 960
WIRE 10336 976 10336 912
WIRE 10464 976 10464 960
WIRE 7216 992 7216 928
WIRE 7344 992 7344 976
WIRE 8192 992 8192 928
WIRE 8320 992 8320 976
WIRE 9232 992 9104 992
WIRE 10208 992 10080 992
WIRE 7088 1008 6960 1008
WIRE 8064 1008 7936 1008
WIRE 9568 1008 9568 912
WIRE 9568 1008 9536 1008
WIRE 10544 1008 10544 912
WIRE 10544 1008 10512 1008
WIRE 7424 1024 7424 928
WIRE 7424 1024 7392 1024
WIRE 8400 1024 8400 928
WIRE 8400 1024 8368 1024
WIRE 8784 1024 8784 544
WIRE 8912 1024 8912 944
WIRE 9760 1024 9760 544
WIRE 9888 1024 9888 944
WIRE 6640 1040 6640 560
WIRE 6768 1040 6768 960
WIRE 7616 1040 7616 560
WIRE 7744 1040 7744 960
WIRE 9552 1040 9552 944
WIRE 9584 1040 9552 1040
WIRE 10528 1040 10528 944
WIRE 10560 1040 10528 1040
WIRE 7408 1056 7408 960
WIRE 7440 1056 7408 1056
WIRE 8384 1056 8384 960
WIRE 8416 1056 8384 1056
WIRE 9056 1056 9056 752
WIRE 9056 1056 9008 1056
WIRE 10032 1056 10032 752
WIRE 10032 1056 9984 1056
WIRE 6912 1072 6912 768
WIRE 6912 1072 6864 1072
WIRE 7888 1072 7888 768
WIRE 7888 1072 7840 1072
WIRE 9360 1072 9344 1072
WIRE 10336 1072 10320 1072
WIRE 7216 1088 7200 1088
WIRE 8192 1088 8176 1088
WIRE 8864 1088 8720 1088
WIRE 9840 1088 9696 1088
WIRE 6720 1104 6576 1104
WIRE 7696 1104 7552 1104
WIRE 9344 1104 9344 1072
WIRE 9344 1104 9280 1104
WIRE 10320 1104 10320 1072
WIRE 10320 1104 10256 1104
WIRE 7200 1120 7200 1088
WIRE 7200 1120 7136 1120
WIRE 8176 1120 8176 1088
WIRE 8176 1120 8112 1120
WIRE 8768 1120 8768 544
WIRE 8784 1120 8768 1120
WIRE 9760 1120 9744 1120
WIRE 6624 1136 6624 560
WIRE 6640 1136 6624 1136
WIRE 7616 1136 7600 1136
WIRE 9008 1136 8992 1136
WIRE 9984 1136 9968 1136
WIRE 6864 1152 6848 1152
WIRE 7840 1152 7824 1152
WIRE 9408 1152 9408 1136
WIRE 9488 1152 9488 1072
WIRE 9488 1152 9408 1152
WIRE 9536 1152 9488 1152
WIRE 10384 1152 10384 1136
WIRE 10464 1152 10464 1072
WIRE 10464 1152 10384 1152
WIRE 10512 1152 10464 1152
WIRE 7264 1168 7264 1152
WIRE 7344 1168 7344 1088
WIRE 7344 1168 7264 1168
WIRE 7392 1168 7344 1168
WIRE 8240 1168 8240 1152
WIRE 8320 1168 8320 1088
WIRE 8320 1168 8240 1168
WIRE 8368 1168 8320 1168
WIRE 9408 1168 9408 1152
WIRE 10384 1168 10384 1152
WIRE 7264 1184 7264 1168
WIRE 8240 1184 8240 1168
WIRE 9296 1184 9296 512
WIRE 9296 1184 8960 1184
WIRE 10272 1184 10272 512
WIRE 10272 1184 9936 1184
WIRE 7152 1200 7152 528
WIRE 7152 1200 6816 1200
WIRE 8128 1200 8128 528
WIRE 8128 1200 7792 1200
WIRE 9488 1248 9408 1248
WIRE 9584 1248 9584 1216
WIRE 9584 1248 9488 1248
WIRE 10464 1248 10384 1248
WIRE 10560 1248 10560 1216
WIRE 10560 1248 10464 1248
WIRE 7344 1264 7264 1264
WIRE 7440 1264 7440 1232
WIRE 7440 1264 7344 1264
WIRE 8320 1264 8240 1264
WIRE 8416 1264 8416 1232
WIRE 8416 1264 8320 1264
WIRE 9488 1264 9488 1248
WIRE 9504 1264 9488 1264
WIRE 10464 1264 10464 1248
WIRE 10480 1264 10464 1264
WIRE 7344 1280 7344 1264
WIRE 7360 1280 7344 1280
WIRE 8320 1280 8320 1264
WIRE 8336 1280 8320 1280
WIRE 8768 1280 8768 1120
WIRE 9744 1280 9744 1120
WIRE 9744 1280 8768 1280
WIRE 6624 1296 6624 1136
WIRE 7600 1296 7600 1136
WIRE 7600 1296 6624 1296
WIRE 9648 1312 8784 1312
WIRE 10624 1312 9760 1312
WIRE 7504 1328 6640 1328
WIRE 8480 1328 7616 1328
WIRE 9504 1328 9488 1328
WIRE 10480 1328 10464 1328
WIRE 7360 1344 7344 1344
WIRE 8336 1344 8320 1344
WIRE 9488 1344 9488 1328
WIRE 9488 1344 9408 1344
WIRE 9584 1344 9488 1344
WIRE 10464 1344 10464 1328
WIRE 10464 1344 10384 1344
WIRE 10560 1344 10464 1344
WIRE 7344 1360 7344 1344
WIRE 7344 1360 7264 1360
WIRE 7440 1360 7344 1360
WIRE 8320 1360 8320 1344
WIRE 8320 1360 8240 1360
WIRE 8416 1360 8320 1360
WIRE 9584 1376 9584 1344
WIRE 10560 1376 10560 1344
WIRE 7440 1392 7440 1360
WIRE 8416 1392 8416 1360
WIRE 9408 1440 9408 1424
WIRE 9488 1440 9408 1440
WIRE 9536 1440 9488 1440
WIRE 10384 1440 10384 1424
WIRE 10464 1440 10384 1440
WIRE 10512 1440 10464 1440
WIRE 7264 1456 7264 1440
WIRE 7344 1456 7264 1456
WIRE 7392 1456 7344 1456
WIRE 8240 1456 8240 1440
WIRE 8320 1456 8240 1456
WIRE 8368 1456 8320 1456
WIRE 9408 1456 9408 1440
WIRE 10384 1456 10384 1440
WIRE 7264 1472 7264 1456
WIRE 8240 1472 8240 1456
WIRE 9360 1520 9056 1520
WIRE 9488 1520 9488 1440
WIRE 10336 1520 10032 1520
WIRE 10464 1520 10464 1440
WIRE 7216 1536 6912 1536
WIRE 7344 1536 7344 1456
WIRE 8192 1536 7888 1536
WIRE 8320 1536 8320 1456
WIRE 9584 1552 9568 1552
WIRE 10560 1552 10544 1552
WIRE 7440 1568 7424 1568
WIRE 8416 1568 8400 1568
WIRE 9552 1584 9536 1584
WIRE 10528 1584 10512 1584
WIRE 7408 1600 7392 1600
WIRE 8384 1600 8368 1600
WIRE 8928 1600 8912 1600
WIRE 9904 1600 9888 1600
WIRE 6784 1616 6768 1616
WIRE 7760 1616 7744 1616
WIRE 8912 1616 8912 1600
WIRE 8912 1616 8832 1616
WIRE 9008 1616 8912 1616
WIRE 9888 1616 9888 1600
WIRE 9888 1616 9808 1616
WIRE 9984 1616 9888 1616
WIRE 6768 1632 6768 1616
WIRE 6768 1632 6688 1632
WIRE 6864 1632 6768 1632
WIRE 7744 1632 7744 1616
WIRE 7744 1632 7664 1632
WIRE 7840 1632 7744 1632
WIRE 9488 1632 9488 1616
WIRE 10464 1632 10464 1616
WIRE 7344 1648 7344 1632
WIRE 8320 1648 8320 1632
WIRE 9008 1648 9008 1616
WIRE 9584 1648 9584 1632
WIRE 9600 1648 9584 1648
WIRE 9984 1648 9984 1616
WIRE 10560 1648 10560 1632
WIRE 10576 1648 10560 1648
WIRE 6864 1664 6864 1632
WIRE 7440 1664 7440 1648
WIRE 7456 1664 7440 1664
WIRE 7840 1664 7840 1632
WIRE 8416 1664 8416 1648
WIRE 8432 1664 8416 1664
WIRE 9184 1664 9168 1664
WIRE 10160 1664 10144 1664
WIRE 7040 1680 7024 1680
WIRE 8016 1680 8000 1680
WIRE 9168 1680 9168 1664
WIRE 9168 1680 9104 1680
WIRE 9280 1680 9168 1680
WIRE 9360 1680 9360 1616
WIRE 9568 1680 9568 1552
WIRE 9648 1680 9648 1312
WIRE 9648 1680 9568 1680
WIRE 9680 1680 9648 1680
WIRE 10144 1680 10144 1664
WIRE 10144 1680 10080 1680
WIRE 10256 1680 10144 1680
WIRE 10336 1680 10336 1616
WIRE 10544 1680 10544 1552
WIRE 10624 1680 10624 1312
WIRE 10624 1680 10544 1680
WIRE 10656 1680 10624 1680
WIRE 7024 1696 7024 1680
WIRE 7024 1696 6960 1696
WIRE 7136 1696 7024 1696
WIRE 7216 1696 7216 1632
WIRE 7424 1696 7424 1568
WIRE 7504 1696 7504 1328
WIRE 7504 1696 7424 1696
WIRE 7536 1696 7504 1696
WIRE 8000 1696 8000 1680
WIRE 8000 1696 7936 1696
WIRE 8112 1696 8000 1696
WIRE 8192 1696 8192 1632
WIRE 8400 1696 8400 1568
WIRE 8480 1696 8480 1328
WIRE 8480 1696 8400 1696
WIRE 8512 1696 8480 1696
WIRE 9280 1696 9280 1680
WIRE 10256 1696 10256 1680
WIRE 7136 1712 7136 1696
WIRE 8112 1712 8112 1696
WIRE 8832 1712 8832 1696
WIRE 8912 1712 8832 1712
WIRE 8960 1712 8912 1712
WIRE 9552 1712 9552 1584
WIRE 9680 1712 9552 1712
WIRE 9808 1712 9808 1696
WIRE 9888 1712 9808 1712
WIRE 9936 1712 9888 1712
WIRE 10528 1712 10528 1584
WIRE 10656 1712 10528 1712
WIRE 6688 1728 6688 1712
WIRE 6768 1728 6688 1728
WIRE 6816 1728 6768 1728
WIRE 7408 1728 7408 1600
WIRE 7536 1728 7408 1728
WIRE 7664 1728 7664 1712
WIRE 7744 1728 7664 1728
WIRE 7792 1728 7744 1728
WIRE 8384 1728 8384 1600
WIRE 8512 1728 8384 1728
WIRE 8832 1728 8832 1712
WIRE 9600 1728 9584 1728
WIRE 9808 1728 9808 1712
WIRE 10576 1728 10560 1728
WIRE 6688 1744 6688 1728
WIRE 7456 1744 7440 1744
WIRE 7664 1744 7664 1728
WIRE 8432 1744 8416 1744
WIRE 9360 1744 9360 1680
WIRE 9488 1744 9488 1728
WIRE 10336 1744 10336 1680
WIRE 10464 1744 10464 1728
WIRE 7216 1760 7216 1696
WIRE 7344 1760 7344 1744
WIRE 8192 1760 8192 1696
WIRE 8320 1760 8320 1744
WIRE 9232 1760 9104 1760
WIRE 10208 1760 10080 1760
WIRE 7088 1776 6960 1776
WIRE 8064 1776 7936 1776
WIRE 9568 1776 9568 1680
WIRE 9568 1776 9536 1776
WIRE 10544 1776 10544 1680
WIRE 10544 1776 10512 1776
WIRE 7424 1792 7424 1696