Version 4
SHEET 1 109444 42780
WIRE 12464 -5360 12448 -5360
WIRE 12448 -5344 12448 -5360
WIRE 12448 -5344 12384 -5344
WIRE 12560 -5344 12448 -5344
WIRE 15584 -5344 15568 -5344
WIRE 12560 -5328 12560 -5344
WIRE 15568 -5328 15568 -5344
WIRE 15568 -5328 15504 -5328
WIRE 15680 -5328 15568 -5328
WIRE 12736 -5312 12720 -5312
WIRE 15680 -5312 15680 -5328
WIRE 21760 -5312 21744 -5312
WIRE 24048 -5312 24032 -5312
WIRE 12720 -5296 12720 -5312
WIRE 12720 -5296 12656 -5296
WIRE 12832 -5296 12720 -5296
WIRE 15856 -5296 15840 -5296
WIRE 21744 -5296 21744 -5312
WIRE 21744 -5296 21664 -5296
WIRE 21840 -5296 21744 -5296
WIRE 22544 -5296 22528 -5296
WIRE 23296 -5296 23280 -5296
WIRE 24032 -5296 24032 -5312
WIRE 24032 -5296 23952 -5296
WIRE 24128 -5296 24032 -5296
WIRE 12832 -5280 12832 -5296
WIRE 13376 -5280 13360 -5280
WIRE 15840 -5280 15840 -5296
WIRE 15840 -5280 15776 -5280
WIRE 15952 -5280 15840 -5280
WIRE 17248 -5280 17232 -5280
WIRE 18160 -5280 18144 -5280
WIRE 22528 -5280 22528 -5296
WIRE 22528 -5280 22448 -5280
WIRE 22624 -5280 22528 -5280
WIRE 23280 -5280 23280 -5296
WIRE 23280 -5280 23200 -5280
WIRE 23376 -5280 23280 -5280
WIRE 12384 -5264 12352 -5264
WIRE 12512 -5264 12384 -5264
WIRE 13360 -5264 13360 -5280
WIRE 13360 -5264 13296 -5264
WIRE 13472 -5264 13360 -5264
WIRE 15952 -5264 15952 -5280
WIRE 17232 -5264 17232 -5280
WIRE 17232 -5264 17168 -5264
WIRE 17344 -5264 17232 -5264
WIRE 18144 -5264 18144 -5280
WIRE 18144 -5264 18080 -5264
WIRE 18256 -5264 18144 -5264
WIRE 21840 -5264 21840 -5296
WIRE 24128 -5264 24128 -5296
WIRE 13472 -5248 13472 -5264
WIRE 15504 -5248 15472 -5248
WIRE 15632 -5248 15504 -5248
WIRE 17344 -5248 17344 -5264
WIRE 18256 -5248 18256 -5264
WIRE 22016 -5248 22000 -5248
WIRE 22624 -5248 22624 -5280
WIRE 23376 -5248 23376 -5280
WIRE 24304 -5248 24288 -5248
WIRE 13648 -5232 13632 -5232
WIRE 17520 -5232 17504 -5232
WIRE 18432 -5232 18416 -5232
WIRE 22000 -5232 22000 -5248
WIRE 22000 -5232 21936 -5232
WIRE 22112 -5232 22000 -5232
WIRE 22800 -5232 22784 -5232
WIRE 23552 -5232 23536 -5232
WIRE 24288 -5232 24288 -5248
WIRE 24288 -5232 24224 -5232
WIRE 24400 -5232 24288 -5232
WIRE 12784 -5216 12656 -5216
WIRE 13632 -5216 13632 -5232
WIRE 13632 -5216 13568 -5216
WIRE 13744 -5216 13632 -5216
WIRE 17504 -5216 17504 -5232
WIRE 17504 -5216 17440 -5216
WIRE 17616 -5216 17504 -5216
WIRE 18416 -5216 18416 -5232
WIRE 18416 -5216 18352 -5216
WIRE 18528 -5216 18416 -5216
WIRE 20944 -5216 20880 -5216
WIRE 22112 -5216 22112 -5232
WIRE 22784 -5216 22784 -5232
WIRE 22784 -5216 22720 -5216
WIRE 22896 -5216 22784 -5216
WIRE 23536 -5216 23536 -5232
WIRE 23536 -5216 23472 -5216
WIRE 23648 -5216 23536 -5216
WIRE 24400 -5216 24400 -5232
WIRE 13744 -5200 13744 -5216
WIRE 15904 -5200 15776 -5200
WIRE 17616 -5200 17616 -5216
WIRE 18528 -5200 18528 -5216
WIRE 19440 -5200 19296 -5200
WIRE 20064 -5200 19920 -5200
WIRE 21664 -5200 21664 -5216
WIRE 21664 -5200 21584 -5200
WIRE 21792 -5200 21664 -5200
WIRE 22896 -5200 22896 -5216
WIRE 23648 -5200 23648 -5216
WIRE 23952 -5200 23952 -5216
WIRE 23952 -5200 23872 -5200
WIRE 24080 -5200 23952 -5200
WIRE 13296 -5184 13264 -5184
WIRE 13424 -5184 13296 -5184
WIRE 17296 -5184 17168 -5184
WIRE 18208 -5184 18080 -5184
WIRE 22448 -5184 22448 -5200
WIRE 22448 -5184 22368 -5184
WIRE 22576 -5184 22448 -5184
WIRE 23200 -5184 23200 -5200
WIRE 23200 -5184 23120 -5184
WIRE 23328 -5184 23200 -5184
WIRE 20064 -5168 20064 -5200
WIRE 12608 -5152 12560 -5152
WIRE 22064 -5152 21936 -5152
WIRE 24352 -5152 24224 -5152
WIRE 13696 -5136 13568 -5136
WIRE 15728 -5136 15680 -5136
WIRE 17568 -5136 17440 -5136
WIRE 18480 -5136 18352 -5136
WIRE 22848 -5136 22720 -5136
WIRE 23600 -5136 23472 -5136
WIRE 12880 -5104 12832 -5104
WIRE 16000 -5088 15952 -5088
WIRE 21888 -5088 21840 -5088
WIRE 24176 -5088 24128 -5088
WIRE 12560 -5072 12544 -5072
WIRE 13520 -5072 13472 -5072
WIRE 17392 -5072 17344 -5072
WIRE 18304 -5072 18256 -5072
WIRE 22672 -5072 22624 -5072
WIRE 23424 -5072 23376 -5072
WIRE 15680 -5056 15664 -5056
WIRE 22128 -5040 22112 -5040
WIRE 22192 -5040 22128 -5040
WIRE 24416 -5040 24400 -5040
WIRE 24480 -5040 24416 -5040
WIRE 13792 -5024 13744 -5024
WIRE 17712 -5024 17616 -5024
WIRE 18624 -5024 18528 -5024
WIRE 22912 -5024 22896 -5024
WIRE 22976 -5024 22912 -5024
WIRE 23664 -5024 23648 -5024
WIRE 23728 -5024 23664 -5024
WIRE 21840 -5008 21824 -5008
WIRE 24128 -5008 24112 -5008
WIRE 13472 -4992 13456 -4992
WIRE 17344 -4992 17328 -4992
WIRE 18256 -4992 18240 -4992
WIRE 22016 -4992 22000 -4992
WIRE 22624 -4992 22608 -4992
WIRE 23376 -4992 23360 -4992
WIRE 24304 -4992 24288 -4992
WIRE 22000 -4976 22000 -4992
WIRE 22000 -4976 21936 -4976
WIRE 22112 -4976 22000 -4976
WIRE 22800 -4976 22784 -4976
WIRE 23552 -4976 23536 -4976
WIRE 24288 -4976 24288 -4992
WIRE 24288 -4976 24224 -4976
WIRE 24400 -4976 24288 -4976
WIRE 22112 -4960 22112 -4976
WIRE 22784 -4960 22784 -4976
WIRE 22784 -4960 22720 -4960
WIRE 22896 -4960 22784 -4960
WIRE 23536 -4960 23536 -4976
WIRE 23536 -4960 23472 -4960
WIRE 23648 -4960 23536 -4960
WIRE 24400 -4960 24400 -4976
WIRE 22896 -4944 22896 -4960
WIRE 23648 -4944 23648 -4960
WIRE 17248 -4928 17232 -4928
WIRE 18160 -4928 18144 -4928
WIRE 17232 -4912 17232 -4928
WIRE 17232 -4912 17168 -4912
WIRE 17344 -4912 17232 -4912
WIRE 18144 -4912 18144 -4928
WIRE 18144 -4912 18080 -4912
WIRE 18256 -4912 18144 -4912
WIRE 17344 -4896 17344 -4912
WIRE 18256 -4896 18256 -4912
WIRE 22064 -4896 21936 -4896
WIRE 24352 -4896 24224 -4896
WIRE 17520 -4880 17504 -4880
WIRE 18432 -4880 18416 -4880
WIRE 22848 -4880 22720 -4880
WIRE 23600 -4880 23472 -4880
WIRE 17504 -4864 17504 -4880
WIRE 17504 -4864 17440 -4864
WIRE 17616 -4864 17504 -4864
WIRE 18416 -4864 18416 -4880
WIRE 18416 -4864 18352 -4864
WIRE 18528 -4864 18416 -4864
WIRE 17616 -4848 17616 -4864
WIRE 18528 -4848 18528 -4864
WIRE 17296 -4832 17168 -4832
WIRE 18208 -4832 18080 -4832
WIRE 21888 -4832 21888 -5088
WIRE 24176 -4832 24176 -5088
WIRE 22672 -4816 22672 -5072
WIRE 23424 -4816 23424 -5072
WIRE 17568 -4784 17440 -4784
WIRE 18480 -4784 18352 -4784
WIRE 22128 -4784 22128 -5040
WIRE 22128 -4784 22112 -4784
WIRE 24416 -4784 24416 -5040
WIRE 24416 -4784 24400 -4784
WIRE 13408 -4768 13360 -4768
WIRE 13696 -4768 13408 -4768
WIRE 13712 -4768 13696 -4768
WIRE 22912 -4768 22912 -5024
WIRE 22912 -4768 22896 -4768
WIRE 23664 -4768 23664 -5024
WIRE 23664 -4768 23648 -4768
WIRE 17392 -4720 17344 -4720
WIRE 18304 -4720 18256 -4720
WIRE 22016 -4720 22000 -4720
WIRE 22800 -4720 22784 -4720
WIRE 24304 -4720 24288 -4720
WIRE 12528 -4704 12480 -4704
WIRE 12816 -4704 12528 -4704
WIRE 12832 -4704 12816 -4704
WIRE 22000 -4704 22000 -4720
WIRE 22000 -4704 21936 -4704
WIRE 22112 -4704 22000 -4704
WIRE 22784 -4704 22784 -4720
WIRE 22784 -4704 22720 -4704
WIRE 22896 -4704 22784 -4704
WIRE 23552 -4704 23536 -4704
WIRE 24288 -4704 24288 -4720
WIRE 24288 -4704 24224 -4704
WIRE 24400 -4704 24288 -4704
WIRE 22112 -4688 22112 -4704
WIRE 22896 -4688 22896 -4704
WIRE 23536 -4688 23536 -4704
WIRE 23536 -4688 23472 -4688
WIRE 23648 -4688 23536 -4688
WIRE 24400 -4688 24400 -4704
WIRE 13408 -4672 13360 -4672
WIRE 13712 -4672 13664 -4672
WIRE 17712 -4672 17616 -4672
WIRE 18624 -4672 18528 -4672
WIRE 23648 -4672 23648 -4688
WIRE 17344 -4640 17328 -4640
WIRE 18256 -4640 18240 -4640
WIRE 22064 -4624 21936 -4624
WIRE 22848 -4624 22720 -4624
WIRE 24352 -4624 24224 -4624
WIRE 12528 -4608 12480 -4608
WIRE 12832 -4608 12784 -4608
WIRE 23600 -4608 23472 -4608
WIRE 21888 -4560 21888 -4832
WIRE 22672 -4560 22672 -4816
WIRE 24176 -4560 24176 -4832
WIRE 23424 -4544 23424 -4816
WIRE 22128 -4512 22128 -4784
WIRE 22128 -4512 22112 -4512
WIRE 22912 -4512 22912 -4768
WIRE 22912 -4512 22896 -4512
WIRE 24416 -4512 24416 -4784
WIRE 24416 -4512 24400 -4512
WIRE 23664 -4496 23664 -4768
WIRE 23664 -4496 23648 -4496
WIRE 13696 -4464 13696 -4768
WIRE 13696 -4464 13408 -4464
WIRE 13712 -4464 13696 -4464
WIRE 19344 -4464 19328 -4464
WIRE 22016 -4464 22000 -4464
WIRE 22800 -4464 22784 -4464
WIRE 24304 -4464 24288 -4464
WIRE 18336 -4448 18320 -4448
WIRE 19328 -4448 19328 -4464
WIRE 19328 -4448 19248 -4448
WIRE 19424 -4448 19328 -4448
WIRE 22000 -4448 22000 -4464
WIRE 22000 -4448 21936 -4448
WIRE 22112 -4448 22000 -4448
WIRE 22784 -4448 22784 -4464
WIRE 22784 -4448 22720 -4448
WIRE 22896 -4448 22784 -4448
WIRE 23552 -4448 23536 -4448
WIRE 24288 -4448 24288 -4464
WIRE 24288 -4448 24224 -4448
WIRE 24400 -4448 24288 -4448
WIRE 18320 -4432 18320 -4448
WIRE 18320 -4432 18240 -4432
WIRE 22112 -4432 22112 -4448
WIRE 22896 -4432 22896 -4448
WIRE 23536 -4432 23536 -4448
WIRE 23536 -4432 23472 -4432
WIRE 23648 -4432 23536 -4432
WIRE 24400 -4432 24400 -4448
WIRE 16976 -4416 16960 -4416
WIRE 19424 -4416 19424 -4448
WIRE 23648 -4416 23648 -4432
WIRE 12816 -4400 12816 -4704
WIRE 12816 -4400 12528 -4400
WIRE 12832 -4400 12816 -4400
WIRE 16960 -4400 16960 -4416
WIRE 16960 -4400 16928 -4400
WIRE 17008 -4400 16960 -4400
WIRE 18320 -4400 18320 -4432
WIRE 19600 -4400 19584 -4400
WIRE 18496 -4384 18480 -4384
WIRE 19584 -4384 19584 -4400
WIRE 19584 -4384 19520 -4384
WIRE 19696 -4384 19584 -4384
WIRE 13408 -4368 13360 -4368
WIRE 13712 -4368 13664 -4368
WIRE 17008 -4368 17008 -4400
WIRE 18480 -4368 18480 -4384
WIRE 18480 -4368 18416 -4368
WIRE 18592 -4368 18480 -4368
WIRE 19696 -4368 19696 -4384
WIRE 22064 -4368 21936 -4368
WIRE 22848 -4368 22720 -4368
WIRE 24352 -4368 24224 -4368
WIRE 17184 -4352 17168 -4352
WIRE 18592 -4352 18592 -4368
WIRE 19248 -4352 19248 -4368
WIRE 19248 -4352 19168 -4352
WIRE 19376 -4352 19248 -4352
WIRE 23600 -4352 23472 -4352
WIRE 17168 -4336 17168 -4352
WIRE 17168 -4336 17104 -4336
WIRE 17280 -4336 17168 -4336
WIRE 18240 -4336 18240 -4352
WIRE 18240 -4336 18160 -4336
WIRE 18272 -4336 18240 -4336
WIRE 17280 -4320 17280 -4336
WIRE 12528 -4304 12480 -4304
WIRE 12832 -4304 12784 -4304
WIRE 16928 -4304 16928 -4320
WIRE 16928 -4304 16912 -4304
WIRE 16960 -4304 16928 -4304
WIRE 19648 -4304 19520 -4304
WIRE 21888 -4304 21888 -4560
WIRE 22672 -4304 22672 -4560
WIRE 24176 -4304 24176 -4560
WIRE 18544 -4288 18416 -4288
WIRE 23424 -4288 23424 -4544
WIRE 17232 -4256 17104 -4256
WIRE 22128 -4256 22128 -4512
WIRE 22128 -4256 22112 -4256
WIRE 22912 -4256 22912 -4512
WIRE 22912 -4256 22896 -4256
WIRE 24416 -4256 24416 -4512
WIRE 24416 -4256 24400 -4256
WIRE 19472 -4240 19424 -4240
WIRE 23664 -4240 23664 -4496
WIRE 23664 -4240 23648 -4240
WIRE 18368 -4224 18320 -4224
WIRE 17040 -4192 17008 -4192
WIRE 17056 -4192 17040 -4192
WIRE 19776 -4192 19696 -4192
WIRE 18672 -4176 18592 -4176
WIRE 24416 -4176 24416 -4256
WIRE 17888 -4160 17856 -4160
WIRE 19424 -4160 19408 -4160
WIRE 19472 -4160 19472 -4240
WIRE 19776 -4160 19472 -4160
WIRE 17360 -4144 17280 -4144
WIRE 18320 -4144 18304 -4144
WIRE 24176 -4128 24176 -4304
WIRE 17008 -4112 16992 -4112
WIRE 17040 -4112 17040 -4192
WIRE 17360 -4112 17040 -4112
WIRE 18416 -4080 16896 -4080
WIRE 16912 -4048 16896 -4048
WIRE 18768 -4048 17904 -4048
WIRE 18624 -4032 18608 -4032
WIRE 18608 -4016 18608 -4032
WIRE 18608 -4016 18528 -4016
WIRE 18704 -4016 18608 -4016
WIRE 18704 -3984 18704 -4016
WIRE 18528 -3920 18528 -3936
WIRE 18608 -3920 18528 -3920
WIRE 18656 -3920 18608 -3920
WIRE 18528 -3904 18528 -3920
WIRE 18480 -3840 18176 -3840
WIRE 18608 -3840 18608 -3920
WIRE 18704 -3808 18688 -3808
WIRE 18672 -3776 18656 -3776
WIRE 18048 -3760 18032 -3760
WIRE 18032 -3744 18032 -3760
WIRE 18032 -3744 17952 -3744
WIRE 18128 -3744 18032 -3744
WIRE 18608 -3728 18608 -3744
WIRE 17456 -3712 17440 -3712
WIRE 18128 -3712 18128 -3744
WIRE 18704 -3712 18704 -3728
WIRE 18720 -3712 18704 -3712
WIRE 17440 -3696 17440 -3712
WIRE 17440 -3696 17376 -3696
WIRE 17552 -3696 17440 -3696
WIRE 18304 -3696 18288 -3696
WIRE 17552 -3680 17552 -3696
WIRE 18288 -3680 18288 -3696
WIRE 18288 -3680 18224 -3680
WIRE 18400 -3680 18288 -3680
WIRE 18480 -3680 18480 -3744
WIRE 18688 -3680 18688 -3808
WIRE 18768 -3680 18768 -4048
WIRE 18768 -3680 18688 -3680
WIRE 18800 -3680 18768 -3680
WIRE 18400 -3664 18400 -3680
WIRE 17952 -3648 17952 -3664
WIRE 18032 -3648 17952 -3648
WIRE 18080 -3648 18032 -3648
WIRE 17952 -3632 17952 -3648
WIRE 18720 -3632 18704 -3632
WIRE 17328 -3616 17168 -3616
WIRE 17376 -3616 17328 -3616
WIRE 17504 -3616 17376 -3616
WIRE 18480 -3616 18480 -3680
WIRE 18608 -3616 18608 -3632
WIRE 18352 -3600 18224 -3600
WIRE 18688 -3584 18688 -3680
WIRE 18688 -3584 18656 -3584
WIRE 17904 -3568 17904 -4048
WIRE 18032 -3568 18032 -3648
WIRE 18672 -3552 18672 -3776
WIRE 18704 -3552 18672 -3552
WIRE 18176 -3536 18176 -3840
WIRE 18176 -3536 18128 -3536
WIRE 18480 -3520 18464 -3520
WIRE 17600 -3504 17552 -3504
WIRE 17984 -3504 17840 -3504
WIRE 18464 -3488 18464 -3520
WIRE 18464 -3488 18400 -3488
WIRE 17904 -3472 17888 -3472
WIRE 18128 -3456 18112 -3456
WIRE 18528 -3440 18528 -3456
WIRE 18608 -3440 18608 -3520
WIRE 18608 -3440 18528 -3440
WIRE 18656 -3440 18608 -3440
WIRE 17552 -3424 17536 -3424
WIRE 18528 -3424 18528 -3440
WIRE 18416 -3408 18416 -4080
WIRE 18416 -3408 18080 -3408
WIRE 18608 -3344 18528 -3344
WIRE 18704 -3344 18704 -3376
WIRE 18704 -3344 18608 -3344
WIRE 18608 -3328 18608 -3344
WIRE 18624 -3328 18608 -3328
WIRE 16912 -3312 16912 -4048
WIRE 17888 -3312 17888 -3472
WIRE 17888 -3312 16912 -3312
WIRE 18416 -3296 18416 -3408
WIRE 18416 -3296 17440 -3296
WIRE 17792 -3280 16928 -3280
WIRE 18768 -3280 17904 -3280
WIRE 17648 -3264 17632 -3264
WIRE 18624 -3264 18608 -3264
WIRE 17632 -3248 17632 -3264
WIRE 17632 -3248 17552 -3248
WIRE 17728 -3248 17632 -3248
WIRE 18608 -3248 18608 -3264
WIRE 18608 -3248 18528 -3248
WIRE 18704 -3248 18608 -3248
WIRE 17728 -3216 17728 -3248
WIRE 18704 -3216 18704 -3248
WIRE 17552 -3152 17552 -3168
WIRE 17632 -3152 17552 -3152
WIRE 17680 -3152 17632 -3152
WIRE 18528 -3152 18528 -3168
WIRE 18608 -3152 18528 -3152
WIRE 18656 -3152 18608 -3152
WIRE 17552 -3136 17552 -3152
WIRE 18528 -3136 18528 -3152
WIRE 17504 -3072 17200 -3072
WIRE 17632 -3072 17632 -3152
WIRE 18480 -3072 18176 -3072
WIRE 18608 -3072 18608 -3152
WIRE 17728 -3040 17712 -3040
WIRE 18704 -3040 18688 -3040
WIRE 17696 -3008 17680 -3008
WIRE 18672 -3008 18656 -3008
WIRE 17072 -2992 17056 -2992
WIRE 18048 -2992 18032 -2992
WIRE 17056 -2976 17056 -2992
WIRE 17056 -2976 16976 -2976
WIRE 17152 -2976 17056 -2976
WIRE 18032 -2976 18032 -2992
WIRE 18032 -2976 17952 -2976
WIRE 18128 -2976 18032 -2976
WIRE 17632 -2960 17632 -2976
WIRE 18608 -2960 18608 -2976
WIRE 17152 -2944 17152 -2976
WIRE 17728 -2944 17728 -2960
WIRE 17744 -2944 17728 -2944
WIRE 18128 -2944 18128 -2976
WIRE 18704 -2944 18704 -2960
WIRE 18720 -2944 18704 -2944
WIRE 17328 -2928 17312 -2928
WIRE 18304 -2928 18288 -2928
WIRE 17312 -2912 17312 -2928
WIRE 17312 -2912 17248 -2912
WIRE 17424 -2912 17312 -2912
WIRE 17504 -2912 17504 -2976
WIRE 17712 -2912 17712 -3040
WIRE 17792 -2912 17792 -3280
WIRE 17792 -2912 17712 -2912
WIRE 17824 -2912 17792 -2912
WIRE 18288 -2912 18288 -2928
WIRE 18288 -2912 18224 -2912
WIRE 18400 -2912 18288 -2912
WIRE 18480 -2912 18480 -2976
WIRE 18688 -2912 18688 -3040
WIRE 18768 -2912 18768 -3280
WIRE 18768 -2912 18688 -2912
WIRE 18800 -2912 18768 -2912
WIRE 17424 -2896 17424 -2912
WIRE 18400 -2896 18400 -2912
WIRE 16976 -2880 16976 -2896
WIRE 17056 -2880 16976 -2880
WIRE 17104 -2880 17056 -2880
WIRE 17952 -2880 17952 -2896
WIRE 18032 -2880 17952 -2880
WIRE 18080 -2880 18032 -2880
WIRE 16976 -2864 16976 -2880
WIRE 17744 -2864 17728 -2864
WIRE 17952 -2864 17952 -2880
WIRE 18720 -2864 18704 -2864
WIRE 17504 -2848 17504 -2912
WIRE 17632 -2848 17632 -2864
WIRE 18480 -2848 18480 -2912
WIRE 18608 -2848 18608 -2864
WIRE 17376 -2832 17248 -2832
WIRE 18352 -2832 18224 -2832
WIRE 17712 -2816 17712 -2912
WIRE 17712 -2816 17680 -2816
WIRE 18688 -2816 18688 -2912
WIRE 18688 -2816 18656 -2816
WIRE 16928 -2800 16928 -3280
WIRE 17056 -2800 17056 -2880
WIRE 17904 -2800 17904 -3280
WIRE 18032 -2800 18032 -2880
WIRE 17696 -2784 17696 -3008
WIRE 17728 -2784 17696 -2784
WIRE 18672 -2784 18672 -3008
WIRE 18704 -2784 18672 -2784
WIRE 17200 -2768 17200 -3072
WIRE 17200 -2768 17152 -2768
WIRE 18176 -2768 18176 -3072
WIRE 18176 -2768 18128 -2768
WIRE 17504 -2752 17488 -2752
WIRE 18480 -2752 18464 -2752
WIRE 17008 -2736 16864 -2736
WIRE 17984 -2736 17840 -2736
WIRE 17488 -2720 17488 -2752
WIRE 17488 -2720 17424 -2720
WIRE 18464 -2720 18464 -2752
WIRE 18464 -2720 18400 -2720
WIRE 16912 -2704 16912 -3312
WIRE 16928 -2704 16912 -2704
WIRE 17888 -2704 17888 -3312
WIRE 17904 -2704 17888 -2704
WIRE 17152 -2688 17136 -2688
WIRE 18128 -2688 18112 -2688
WIRE 17552 -2672 17552 -2688
WIRE 17632 -2672 17632 -2752
WIRE 17632 -2672 17552 -2672
WIRE 17680 -2672 17632 -2672
WIRE 18528 -2672 18528 -2688
WIRE 18608 -2672 18608 -2752
WIRE 18608 -2672 18528 -2672
WIRE 18656 -2672 18608 -2672
WIRE 17552 -2656 17552 -2672
WIRE 18528 -2656 18528 -2672
WIRE 17440 -2640 17440 -3296
WIRE 17440 -2640 17104 -2640
WIRE 18416 -2640 18416 -3296
WIRE 18416 -2640 18080 -2640
WIRE 17632 -2576 17552 -2576
WIRE 17728 -2576 17728 -2608
WIRE 17728 -2576 17632 -2576
WIRE 18608 -2576 18528 -2576
WIRE 18704 -2576 18704 -2608
WIRE 18704 -2576 18608 -2576
WIRE 17632 -2560 17632 -2576
WIRE 17648 -2560 17632 -2560
WIRE 18608 -2560 18608 -2576
WIRE 18624 -2560 18608 -2560
FLAG 18624 -4032 VDD
FLAG 18624 -3328 VDD
FLAG 18720 -3632 VSS
FLAG 18528 -3648 0
FLAG 18528 -3712 0
FLAG 18608 -3728 0
FLAG 18608 -3632 0
FLAG 18720 -3712 VSS
FLAG 18480 -3680 CLK
FLAG 18032 -3376 0
FLAG 17952 -3440 0
FLAG 18224 -3504 0
FLAG 18048 -3760 VDD
FLAG 18304 -3696 VDD
FLAG 18112 -3456 VSS
FLAG 18320 -3488 VSS
FLAG 17840 -3504 A_Q2
FLAG 17648 -3264 VDD
FLAG 17648 -2560 VDD
FLAG 17744 -2864 VSS
FLAG 17552 -2880 0
FLAG 17552 -2944 0
FLAG 17632 -2960 0
FLAG 17632 -2864 0
FLAG 17744 -2944 VSS
FLAG 17504 -2912 CLK
FLAG 17056 -2608 0
FLAG 16976 -2672 0
FLAG 17248 -2736 0
FLAG 17072 -2992 VDD
FLAG 17328 -2928 VDD
FLAG 17136 -2688 VSS
FLAG 17344 -2720 VSS
FLAG 16864 -2736 A_Q1
FLAG 18624 -3264 VDD
FLAG 18624 -2560 VDD
FLAG 18720 -2864 VSS
FLAG 18528 -2880 0
FLAG 18528 -2944 0
FLAG 18608 -2960 0
FLAG 18608 -2864 0
FLAG 18720 -2944 VSS
FLAG 18480 -2912 CLK
FLAG 18032 -2608 0
FLAG 17952 -2672 0
FLAG 18224 -2736 0
FLAG 18048 -2992 VDD
FLAG 18304 -2928 VDD
FLAG 18112 -2688 VSS
FLAG 18320 -2720 VSS
FLAG 17840 -2736 A_Q0
FLAG 17104 -4160 0
FLAG 16976 -4416 VDD
FLAG 17184 -4352 VDD
FLAG 16992 -4112 VSS
FLAG 17200 -4144 VSS
FLAG 16912 -4304 CMRAM_Load
FLAG 17360 -4144 CMRAM_Loading
FLAG 17360 -4112 !CMRAM_Loading
FLAG 17504 -3520 0
FLAG 17456 -3712 VDD
FLAG 17536 -3424 VSS
FLAG 17456 -3552 CMRAM1
FLAG 17280 -3552 CMRAM2
FLAG 17328 -3520 0
FLAG 17168 -3520 0
FLAG 17600 -3504 CMRAM0
FLAG 17936 -4224 CMRAM_Load
FLAG 17936 -4128 0
FLAG 17856 -4160 Startup_Pulse
FLAG 13568 -5040 0
FLAG 13376 -5280 VDD
FLAG 13648 -5232 VDD
FLAG 13456 -4992 VSS
FLAG 13664 -5024 VSS
FLAG 13264 -5184 4004_Out
FLAG 13792 -5024 4004_Outing
FLAG 19296 -5200 MReset
FLAG 19440 -5200 SYNC
FLAG 19920 -5200 TestPin
FLAG 20064 -5312 0
FLAG 20064 -5088 0
FLAG 20880 -5216 ResetPin
FLAG 15776 -5104 0
FLAG 15584 -5344 VDD
FLAG 15856 -5296 VDD
FLAG 15664 -5056 VSS
FLAG 15872 -5088 VSS
FLAG 15472 -5248 CMROM
FLAG 16000 -5088 CM-ROM
FLAG 18416 -4192 0
FLAG 18336 -4448 VDD
FLAG 18496 -4384 VDD
FLAG 18304 -4144 VSS
FLAG 18512 -4176 VSS
FLAG 18672 -4176 CMRAM_Outing
FLAG 16896 -4080 CMRAM_Loading
FLAG 16896 -4048 !CMRAM_Loading
FLAG 18800 -3680 CMRAM3
FLAG 17824 -2912 CMRAM2
FLAG 18800 -2912 CMRAM1
FLAG 18160 -4336 CMRAM_Out
FLAG 12656 -5120 0
FLAG 12464 -5360 VDD
FLAG 12736 -5312 VDD
FLAG 12544 -5072 VSS
FLAG 12752 -5104 VSS
FLAG 12352 -5264 4004_In
FLAG 12880 -5104 4004_Loading
FLAG 12576 -4576 0
FLAG 12880 -4576 0
FLAG 12576 -4272 0
FLAG 12880 -4272 0
FLAG 12576 -4768 Bus3In
FLAG 12480 -4704 4004_Loading
FLAG 12880 -4768 Bus2In
FLAG 12576 -4464 Bus1In
FLAG 12880 -4464 Bus0In
FLAG 12480 -4608 D3
FLAG 12784 -4608 D2
FLAG 12784 -4304 D0
FLAG 12480 -4304 D1
FLAG 18080 -4640 0
FLAG 18352 -4688 0
FLAG 18160 -4928 VDD
FLAG 18432 -4880 VDD
FLAG 18240 -4640 VSS
FLAG 18448 -4672 VSS
FLAG 18080 -4992 0
FLAG 18352 -5040 0
FLAG 18160 -5280 VDD
FLAG 18432 -5232 VDD
FLAG 18240 -4992 VSS
FLAG 18448 -5024 VSS
FLAG 17168 -4640 0
FLAG 17440 -4688 0
FLAG 17248 -4928 VDD
FLAG 17520 -4880 VDD
FLAG 17328 -4640 VSS
FLAG 17536 -4672 VSS
FLAG 17168 -4992 0
FLAG 17440 -5040 0
FLAG 17248 -5280 VDD
FLAG 17520 -5232 VDD
FLAG 17328 -4992 VSS
FLAG 17536 -5024 VSS
FLAG 17120 -5024 CMRAM_Outing
FLAG 18032 -5024 CMRAM_Outing
FLAG 18032 -4672 CMRAM_Outing
FLAG 17120 -4672 CMRAM_Outing
FLAG 17712 -4672 CM-RAM1
FLAG 18624 -4672 CM-RAM0
FLAG 18624 -5024 CM-RAM2
FLAG 17712 -5024 CM-RAM3
FLAG 18032 -4768 CMRAM0
FLAG 17120 -4768 CMRAM1
FLAG 18032 -5120 CMRAM2
FLAG 17120 -5120 CMRAM3
FLAG 13456 -4640 0
FLAG 13760 -4640 0
FLAG 13456 -4336 0
FLAG 13760 -4336 0
FLAG 13360 -4768 4004_Outing
FLAG 13360 -4672 Bus3
FLAG 13664 -4672 Bus2
FLAG 13360 -4368 Bus1
FLAG 13664 -4368 Bus0
FLAG 13456 -4832 D3In
FLAG 13760 -4832 D2In
FLAG 13456 -4528 D1In
FLAG 13760 -4528 D0In
FLAG 19520 -4208 0
FLAG 19344 -4464 VDD
FLAG 19600 -4400 VDD
FLAG 19408 -4160 VSS
FLAG 19616 -4192 VSS
FLAG 19168 -4352 CM-Enable
FLAG 19776 -4192 CM-Enabled
FLAG 19776 -4160 !CM-Enabled
FLAG 17120 -3552 CMRAM3
FLAG 21936 -5056 0
FLAG 21760 -5312 VDD
FLAG 22016 -5248 VDD
FLAG 21824 -5008 VSS
FLAG 22032 -5040 VSS
FLAG 22720 -5040 0
FLAG 22544 -5296 VDD
FLAG 22800 -5232 VDD
FLAG 22608 -4992 VSS
FLAG 22816 -5024 VSS
FLAG 23472 -5040 0
FLAG 23296 -5296 VDD
FLAG 23552 -5232 VDD
FLAG 23360 -4992 VSS
FLAG 23568 -5024 VSS
FLAG 24224 -5056 0
FLAG 24048 -5312 VDD
FLAG 24304 -5248 VDD
FLAG 24320 -5040 VSS
FLAG 22192 -5040 Bus3
FLAG 22976 -5024 Bus2
FLAG 23728 -5024 Bus1
FLAG 24480 -5040 Bus0
FLAG 21584 -5200 Bus3In
FLAG 22368 -5184 Bus2In
FLAG 23120 -5184 Bus1In
FLAG 23872 -5200 Bus0In
FLAG 21936 -4800 0
FLAG 22016 -4992 VDD
FLAG 22032 -4784 VSS
FLAG 21936 -4528 0
FLAG 22016 -4720 VDD
FLAG 22032 -4512 VSS
FLAG 21936 -4272 0
FLAG 22016 -4464 VDD
FLAG 22032 -4256 VSS
FLAG 22720 -4784 0
FLAG 22800 -4976 VDD
FLAG 22816 -4768 VSS
FLAG 22720 -4528 0
FLAG 22800 -4720 VDD
FLAG 22816 -4512 VSS
FLAG 22720 -4272 0
FLAG 22800 -4464 VDD
FLAG 22816 -4256 VSS
FLAG 23472 -4784 0
FLAG 23552 -4976 VDD
FLAG 23568 -4768 VSS
FLAG 23472 -4512 0
FLAG 23552 -4704 VDD
FLAG 23568 -4496 VSS
FLAG 23472 -4256 0
FLAG 23552 -4448 VDD
FLAG 23568 -4240 VSS
FLAG 24112 -5008 VSS
FLAG 24224 -4800 0
FLAG 24304 -4992 VDD
FLAG 24320 -4784 VSS
FLAG 24224 -4528 0
FLAG 24304 -4720 VDD
FLAG 24320 -4512 VSS
FLAG 24224 -4272 0
FLAG 24304 -4464 VDD
FLAG 24320 -4256 VSS
SYMBOL njf 18480 -3904 R0
SYMATTR InstName J_A2369
SYMATTR Value DR
SYMBOL res 18512 -4032 R0
WINDOW 0 -97 50 Left 2
WINDOW 3 34 56 Left 2
SYMATTR InstName R3847
SYMATTR Value 100k
SYMBOL njf 18656 -3984 R0
SYMATTR InstName J_F969
SYMATTR Value DR
SYMBOL res 18688 -3904 R0
WINDOW 0 147 41 Left 2
WINDOW 3 34 58 Left 2
SYMATTR InstName R3848
SYMATTR Value 1k
SYMBOL res 18688 -3824 R0
WINDOW 0 141 56 Left 2
WINDOW 3 37 62 Left 2
SYMATTR InstName R3849
SYMATTR Value 4.8k
SYMBOL njf 18656 -3840 M0
WINDOW 0 -255 -80 Left 2
SYMATTR InstName J_B1117
SYMATTR Value DR
SYMBOL njf 18480 -3456 M180
SYMATTR InstName J_A2370
SYMATTR Value DR
SYMBOL res 18512 -3328 M180
WINDOW 0 36 76 Left 2
WINDOW 3 36 40 Left 2
SYMATTR InstName R3850
SYMATTR Value 100k
SYMBOL njf 18656 -3376 M180
SYMATTR InstName J_F970
SYMATTR Value DR
SYMBOL res 18688 -3456 M180
WINDOW 0 36 76 Left 2
WINDOW 3 36 40 Left 2
SYMATTR InstName R3851
SYMATTR Value 1k
SYMBOL res 18688 -3536 M180
WINDOW 0 36 76 Left 2
WINDOW 3 36 40 Left 2
SYMATTR InstName R3852
SYMATTR Value 4.8k
SYMBOL njf 18656 -3520 R180
SYMATTR InstName J_B1118
SYMATTR Value DR
SYMBOL njf 18480 -3808 R0
SYMATTR InstName J_A2371
SYMATTR Value DR
SYMBOL njf 18480 -3552 M180
SYMATTR InstName J_A2372
SYMATTR Value DR
SYMBOL njf 17904 -3632 R0
SYMATTR InstName J_A2373
SYMATTR Value DR
SYMBOL res 17936 -3760 R0
WINDOW 0 76 71 Left 2
WINDOW 3 34 56 Left 2
SYMATTR InstName R3853
SYMATTR Value 100k
SYMBOL njf 18080 -3712 R0
SYMATTR InstName J_F971
SYMATTR Value DR
SYMBOL res 18112 -3632 R0
WINDOW 0 2 -38 Left 2
WINDOW 3 34 58 Left 2
SYMATTR InstName R3854
SYMATTR Value 1k
SYMBOL res 18112 -3552 R0
WINDOW 0 67 117 Left 2
WINDOW 3 37 62 Left 2
SYMATTR InstName R3855
SYMATTR Value 4.8k
SYMBOL njf 17984 -3568 R0
SYMATTR InstName J_B1119
SYMATTR Value DR
SYMBOL njf 18176 -3600 R0
SYMATTR InstName J_A2374
SYMATTR Value DR
SYMBOL res 18208 -3696 R0
SYMATTR InstName R3856
SYMATTR Value 50k
SYMBOL njf 18352 -3664 R0
SYMATTR InstName J_A2375
SYMATTR Value DR
SYMBOL res 18384 -3584 R0
WINDOW 0 37 24 Left 2
WINDOW 3 -30 25 Left 2
SYMATTR InstName R3857
SYMATTR Value 1k
SYMBOL res 18416 -3504 R90
WINDOW 0 59 66 VBottom 2
WINDOW 3 34 13 VTop 2
SYMATTR InstName R3858
SYMATTR Value 4.5k
SYMBOL njf 17904 -3536 R0
WINDOW 0 120 14 Left 2
SYMATTR InstName J_A2376
SYMATTR Value DR
SYMBOL njf 18080 -3472 M0
SYMATTR InstName J_B1120
SYMATTR Value DR
SYMBOL njf 17504 -3136 R0
SYMATTR InstName J_A2377
SYMATTR Value DR
SYMBOL res 17536 -3264 R0
WINDOW 0 75 60 Left 2
WINDOW 3 34 56 Left 2
SYMATTR InstName R3859
SYMATTR Value 100k
SYMBOL njf 17680 -3216 R0
SYMATTR InstName J_F972
SYMATTR Value DR
SYMBOL res 17712 -3136 R0
WINDOW 0 -63 43 Left 2
WINDOW 3 34 58 Left 2
SYMATTR InstName R3860
SYMATTR Value 1k
SYMBOL res 17712 -3056 R0
WINDOW 0 -61 -28 Left 2
WINDOW 3 37 62 Left 2
SYMATTR InstName R3861
SYMATTR Value 4.8k
SYMBOL njf 17680 -3072 M0
WINDOW 0 -9 -27 Left 2
SYMATTR InstName J_B1121
SYMATTR Value DR
SYMBOL njf 17504 -2688 M180
SYMATTR InstName J_A2378
SYMATTR Value DR
SYMBOL res 17536 -2560 M180
WINDOW 0 36 76 Left 2
WINDOW 3 36 40 Left 2
SYMATTR InstName R3862
SYMATTR Value 100k
SYMBOL njf 17680 -2608 M180
SYMATTR InstName J_F973
SYMATTR Value DR
SYMBOL res 17712 -2688 M180
WINDOW 0 36 76 Left 2
WINDOW 3 36 40 Left 2
SYMATTR InstName R3863
SYMATTR Value 1k
SYMBOL res 17712 -2768 M180
WINDOW 0 36 76 Left 2
WINDOW 3 36 40 Left 2
SYMATTR InstName R3864
SYMATTR Value 4.8k
SYMBOL njf 17680 -2752 R180
WINDOW 0 60 56 Left 2
SYMATTR InstName J_B1122
SYMATTR Value DR
SYMBOL njf 17504 -3040 R0
SYMATTR InstName J_A2379
SYMATTR Value DR
SYMBOL njf 17504 -2784 M180
SYMATTR InstName J_A2380
SYMATTR Value DR
SYMBOL njf 16928 -2864 R0
SYMATTR InstName J_A2381
SYMATTR Value DR
SYMBOL res 16960 -2992 R0
WINDOW 0 71 58 Left 2
WINDOW 3 34 56 Left 2
SYMATTR InstName R3865
SYMATTR Value 100k
SYMBOL njf 17104 -2944 R0
SYMATTR InstName J_F974
SYMATTR Value DR
SYMBOL res 17136 -2864 R0
WINDOW 0 -59 60 Left 2
WINDOW 3 34 58 Left 2
SYMATTR InstName R3866
SYMATTR Value 1k
SYMBOL res 17136 -2784 R0
WINDOW 0 -75 38 Left 2
WINDOW 3 37 62 Left 2
SYMATTR InstName R3867
SYMATTR Value 4.8k
SYMBOL njf 17008 -2800 R0
SYMATTR InstName J_B1123
SYMATTR Value DR
SYMBOL njf 17200 -2832 R0
SYMATTR InstName J_A2382
SYMATTR Value DR
SYMBOL res 17232 -2928 R0
SYMATTR InstName R3868
SYMATTR Value 50k
SYMBOL njf 17376 -2896 R0
SYMATTR InstName J_A2383
SYMATTR Value DR
SYMBOL res 17408 -2816 R0
WINDOW 0 37 24 Left 2
WINDOW 3 -30 25 Left 2
SYMATTR InstName R3869
SYMATTR Value 1k
SYMBOL res 17440 -2736 R90
WINDOW 0 59 66 VBottom 2
WINDOW 3 34 13 VTop 2
SYMATTR InstName R3870
SYMATTR Value 4.5k
SYMBOL njf 16928 -2768 R0
WINDOW 0 133 12 Left 2
SYMATTR InstName J_A2384
SYMATTR Value DR
SYMBOL njf 17104 -2704 M0
SYMATTR InstName J_B1124
SYMATTR Value DR
SYMBOL njf 18480 -3136 R0
SYMATTR InstName J_A2385
SYMATTR Value DR
SYMBOL res 18512 -3264 R0
WINDOW 0 -35 57 Left 2
WINDOW 3 34 56 Left 2
SYMATTR InstName R3871
SYMATTR Value 100k
SYMBOL njf 18656 -3216 R0
SYMATTR InstName J_F975
SYMATTR Value DR
SYMBOL res 18688 -3136 R0
WINDOW 0 -24 60 Left 2
WINDOW 3 34 58 Left 2
SYMATTR InstName R3872
SYMATTR Value 1k
SYMBOL res 18688 -3056 R0
WINDOW 0 -22 62 Left 2
WINDOW 3 37 62 Left 2
SYMATTR InstName R3873
SYMATTR Value 4.8k
SYMBOL njf 18656 -3072 M0
WINDOW 0 11 -7 Left 2
SYMATTR InstName J_B1125
SYMATTR Value DR
SYMBOL njf 18480 -2688 M180
SYMATTR InstName J_A2386
SYMATTR Value DR
SYMBOL res 18512 -2560 M180
WINDOW 0 36 76 Left 2
WINDOW 3 36 40 Left 2
SYMATTR InstName R3874
SYMATTR Value 100k
SYMBOL njf 18656 -2608 M180
SYMATTR InstName J_F976
SYMATTR Value DR
SYMBOL res 18688 -2688 M180
WINDOW 0 36 76 Left 2
WINDOW 3 36 40 Left 2
SYMATTR InstName R3875
SYMATTR Value 1k
SYMBOL res 18688 -2768 M180
WINDOW 0 36 76 Left 2
WINDOW 3 36 40 Left 2
SYMATTR InstName R3876
SYMATTR Value 4.8k
SYMBOL njf 18656 -2752 R180
SYMATTR InstName J_B1126
SYMATTR Value DR
SYMBOL njf 18480 -3040 R0
SYMATTR InstName J_A2387
SYMATTR Value DR
SYMBOL njf 18480 -2784 M180
SYMATTR InstName J_A2388
SYMATTR Value DR
SYMBOL njf 17904 -2864 R0
SYMATTR InstName J_A2389
SYMATTR Value DR
SYMBOL res 17936 -2992 R0
WINDOW 0 -35 57 Left 2
WINDOW 3 34 56 Left 2
SYMATTR InstName R3877
SYMATTR Value 100k
SYMBOL njf 18080 -2944 R0
SYMATTR InstName J_F977
SYMATTR Value DR
SYMBOL res 18112 -2864 R0
WINDOW 0 -24 60 Left 2
WINDOW 3 34 58 Left 2
SYMATTR InstName R3878
SYMATTR Value 1k
SYMBOL res 18112 -2784 R0
WINDOW 0 -22 62 Left 2
WINDOW 3 37 62 Left 2
SYMATTR InstName R3879
SYMATTR Value 4.8k
SYMBOL njf 17984 -2800 R0
SYMATTR InstName J_B1127
SYMATTR Value DR
SYMBOL njf 18176 -2832 R0
SYMATTR InstName J_A2390
SYMATTR Value DR
SYMBOL res 18208 -2928 R0
SYMATTR InstName R3880
SYMATTR Value 50k
SYMBOL njf 18352 -2896 R0
SYMATTR InstName J_A2391
SYMATTR Value DR
SYMBOL res 18384 -2816 R0
WINDOW 0 37 24 Left 2
WINDOW 3 -30 25 Left 2
SYMATTR InstName R3881
SYMATTR Value 1k
SYMBOL res 18416 -2736 R90
WINDOW 0 59 66 VBottom 2
WINDOW 3 34 13 VTop 2
SYMATTR InstName R3882
SYMATTR Value 4.5k
SYMBOL njf 17904 -2768 R0
WINDOW 0 117 11 Left 2
SYMATTR InstName J_A2392
SYMATTR Value DR
SYMBOL njf 18080 -2704 M0
SYMATTR InstName J_B1128
SYMATTR Value DR
SYMBOL res 16912 -4416 R0
WINDOW 0 -35 57 Left 2
WINDOW 3 34 56 Left 2
SYMATTR InstName R3883
SYMATTR Value 100k
SYMBOL njf 16960 -4368 R0
SYMATTR InstName J_F978
SYMATTR Value DR
SYMBOL res 16992 -4288 R0
WINDOW 0 -24 60 Left 2
WINDOW 3 34 58 Left 2
SYMATTR InstName R3884
SYMATTR Value 1k
SYMBOL res 16992 -4208 R0
WINDOW 0 -22 62 Left 2
WINDOW 3 37 62 Left 2
SYMATTR InstName R3885
SYMATTR Value 4.8k
SYMBOL njf 17056 -4256 R0
SYMATTR InstName J_A2393
SYMATTR Value DR
SYMBOL res 17088 -4352 R0