Version 4.1
SHEET 1 109444 42780
WIRE 16448 864 16432 864
WIRE 16928 864 16912 864
WIRE 16432 880 16432 864
WIRE 16432 880 16352 880
WIRE 16528 880 16432 880
WIRE 16912 880 16912 864
WIRE 16912 880 16832 880
WIRE 17008 880 16912 880
WIRE 18464 896 18448 896
WIRE 16528 912 16528 880
WIRE 17008 912 17008 880
WIRE 18448 912 18448 896
WIRE 18448 912 18368 912
WIRE 18544 912 18448 912
WIRE 17184 928 17168 928
WIRE 17168 944 17168 928
WIRE 17168 944 17104 944
WIRE 17280 944 17168 944
WIRE 18544 944 18544 912
WIRE 19312 944 19296 944
WIRE 17280 960 17280 944
WIRE 18720 960 18704 960
WIRE 19296 960 19296 944
WIRE 19296 960 19216 960
WIRE 16352 976 16352 960
WIRE 16480 976 16352 976
WIRE 16832 976 16832 960
WIRE 16960 976 16832 976
WIRE 17504 976 17488 976
WIRE 18704 976 18704 960
WIRE 18704 976 18640 976
WIRE 18816 976 18704 976
WIRE 16352 992 16352 976
WIRE 16832 992 16832 976
WIRE 17488 992 17488 976
WIRE 17488 992 17424 992
WIRE 17600 992 17488 992
WIRE 18816 992 18816 976
WIRE 19296 992 19296 960
WIRE 17600 1008 17600 992
WIRE 18368 1008 18368 992
WIRE 18368 1008 18288 1008
WIRE 18496 1008 18368 1008
WIRE 19472 1008 19456 1008
WIRE 17232 1024 17104 1024
WIRE 17744 1024 17728 1024
WIRE 19456 1024 19456 1008
WIRE 19456 1024 19392 1024
WIRE 19568 1024 19456 1024
WIRE 17728 1040 17728 1024
WIRE 17728 1040 17664 1040
WIRE 17840 1040 17728 1040
WIRE 19568 1040 19568 1024
WIRE 17840 1056 17840 1040
WIRE 18768 1056 18640 1056
WIRE 19216 1056 19216 1040
WIRE 19216 1056 19200 1056
WIRE 19248 1056 19216 1056
WIRE 17552 1072 17424 1072
WIRE 16576 1088 16528 1088
WIRE 17056 1088 17008 1088
WIRE 19520 1104 19392 1104
WIRE 17792 1120 17664 1120
WIRE 18592 1120 18544 1120
WIRE 17376 1136 17280 1136
WIRE 16528 1168 16512 1168
WIRE 17008 1168 16992 1168
WIRE 18896 1168 18816 1168
WIRE 19344 1168 19296 1168
WIRE 17616 1184 17600 1184
WIRE 18544 1200 18528 1200
WIRE 18592 1216 18592 1120
WIRE 18880 1216 18592 1216
WIRE 19600 1216 19568 1216
WIRE 17872 1232 17840 1232
WIRE 19296 1248 19280 1248
WIRE 17616 1296 17616 1184
WIRE 17872 1296 17616 1296
WIRE 19872 1408 18848 1408
WIRE 17296 1424 16256 1424
WIRE 19792 1456 19456 1456
WIRE 17216 1472 16880 1472
WIRE 19008 1488 18992 1488
WIRE 19600 1488 19584 1488
WIRE 16432 1504 16416 1504
WIRE 17024 1504 17008 1504
WIRE 18992 1504 18992 1488
WIRE 18992 1504 18928 1504
WIRE 19104 1504 18992 1504
WIRE 19584 1504 19584 1488
WIRE 19584 1504 19504 1504
WIRE 19680 1504 19584 1504
WIRE 16416 1520 16416 1504
WIRE 16416 1520 16352 1520
WIRE 16528 1520 16416 1520
WIRE 17008 1520 17008 1504
WIRE 17008 1520 16928 1520
WIRE 17104 1520 17008 1520
WIRE 19104 1520 19104 1504
WIRE 16528 1536 16528 1520
WIRE 19280 1536 19264 1536
WIRE 19680 1536 19680 1504
WIRE 16704 1552 16688 1552
WIRE 17104 1552 17104 1520
WIRE 18432 1552 18416 1552
WIRE 18704 1552 18688 1552
WIRE 19264 1552 19264 1536
WIRE 19264 1552 19200 1552
WIRE 19376 1552 19264 1552
WIRE 15808 1568 15792 1568
WIRE 16128 1568 16112 1568
WIRE 16688 1568 16688 1552
WIRE 16688 1568 16624 1568
WIRE 16800 1568 16688 1568
WIRE 18416 1568 18416 1552
WIRE 18416 1568 18352 1568
WIRE 18528 1568 18416 1568
WIRE 18688 1568 18688 1552
WIRE 18688 1568 18624 1568
WIRE 18800 1568 18688 1568
WIRE 19376 1568 19376 1552
WIRE 15792 1584 15792 1568
WIRE 15792 1584 15728 1584
WIRE 15904 1584 15792 1584
WIRE 16112 1584 16112 1568
WIRE 16112 1584 16048 1584
WIRE 16224 1584 16112 1584
WIRE 16800 1584 16800 1568
WIRE 18528 1584 18528 1568
WIRE 18800 1584 18800 1568
WIRE 19056 1584 18928 1584
WIRE 15904 1600 15904 1584
WIRE 16224 1600 16224 1584
WIRE 16480 1600 16352 1600
WIRE 19504 1600 19504 1584
WIRE 19584 1600 19504 1600
WIRE 19632 1600 19584 1600
WIRE 16928 1616 16928 1600
WIRE 17008 1616 16928 1616
WIRE 17056 1616 17008 1616
WIRE 19504 1616 19504 1600
WIRE 16928 1632 16928 1616
WIRE 19328 1632 19200 1632
WIRE 16752 1648 16624 1648
WIRE 18480 1648 18352 1648
WIRE 18752 1648 18624 1648
WIRE 18880 1648 18880 1392
WIRE 15856 1664 15728 1664
WIRE 16176 1664 16048 1664
WIRE 16288 1664 16288 1408
WIRE 16304 1664 16288 1664
WIRE 19456 1680 19456 1456
WIRE 19584 1680 19584 1600
WIRE 16880 1696 16880 1472
WIRE 17008 1696 17008 1616
WIRE 19152 1696 19104 1696
WIRE 16576 1712 16528 1712
WIRE 18272 1712 18272 1696
WIRE 18304 1712 18272 1712
WIRE 19776 1712 19680 1712
WIRE 19872 1712 19872 1408
WIRE 19872 1712 19776 1712
WIRE 19920 1712 19872 1712
WIRE 15648 1728 15648 1712
WIRE 15680 1728 15648 1728
WIRE 17200 1728 17104 1728
WIRE 17296 1728 17296 1424
WIRE 17296 1728 17200 1728
WIRE 17344 1728 17296 1728
WIRE 18880 1728 18880 1648
WIRE 18880 1728 18864 1728
WIRE 20240 1728 20224 1728
WIRE 19536 1744 19376 1744
WIRE 20224 1744 20224 1728
WIRE 20224 1744 20160 1744
WIRE 20336 1744 20224 1744
WIRE 16960 1760 16800 1760
WIRE 18880 1760 18880 1744
WIRE 18880 1760 18800 1760
WIRE 20336 1760 20336 1744
WIRE 16304 1776 16304 1760
WIRE 16304 1776 16224 1776
WIRE 19104 1776 19088 1776
WIRE 20512 1776 20496 1776
WIRE 16528 1792 16512 1792
WIRE 18864 1792 18864 1728
WIRE 19536 1792 18864 1792
WIRE 19680 1792 19664 1792
WIRE 20496 1792 20496 1776
WIRE 20496 1792 20432 1792
WIRE 20608 1792 20496 1792
WIRE 16288 1808 16288 1664
WIRE 16960 1808 16288 1808
WIRE 17104 1808 17088 1808
WIRE 18576 1808 18576 1712
WIRE 19520 1808 18576 1808
WIRE 20608 1808 20608 1792
WIRE 15216 1824 15200 1824
WIRE 16000 1824 16000 1728
WIRE 16944 1824 16000 1824
WIRE 17824 1824 17808 1824
WIRE 18432 1824 18416 1824
WIRE 18528 1824 18528 1760
WIRE 18544 1824 18528 1824
WIRE 19056 1824 19040 1824
WIRE 19600 1824 19584 1824
WIRE 20160 1824 20128 1824
WIRE 20288 1824 20160 1824
WIRE 15200 1840 15200 1824
WIRE 15200 1840 15120 1840
WIRE 15296 1840 15200 1840
WIRE 15808 1840 15792 1840
WIRE 15904 1840 15904 1776
WIRE 15920 1840 15904 1840
WIRE 16432 1840 16416 1840
WIRE 17024 1840 17008 1840
WIRE 17808 1840 17808 1824
WIRE 17808 1840 17744 1840
WIRE 17920 1840 17808 1840
WIRE 18416 1840 18416 1824
WIRE 18416 1840 18352 1840
WIRE 18528 1840 18416 1840
WIRE 19040 1840 19040 1824
WIRE 19040 1840 18960 1840
WIRE 19136 1840 19040 1840
WIRE 19584 1840 19584 1824
WIRE 19584 1840 19504 1840
WIRE 19680 1840 19584 1840
WIRE 15792 1856 15792 1840
WIRE 15792 1856 15728 1856
WIRE 15904 1856 15792 1856
WIRE 16416 1856 16416 1840
WIRE 16416 1856 16336 1856
WIRE 16512 1856 16416 1856
WIRE 17008 1856 17008 1840
WIRE 17008 1856 16928 1856
WIRE 17104 1856 17008 1856
WIRE 17920 1856 17920 1840
WIRE 18528 1856 18528 1840
WIRE 18544 1856 18544 1824
WIRE 18832 1856 18544 1856
WIRE 15296 1872 15296 1840
WIRE 15904 1872 15904 1856
WIRE 15920 1872 15920 1840
WIRE 16240 1872 15920 1872
WIRE 18096 1872 18080 1872
WIRE 18704 1872 18688 1872
WIRE 19136 1872 19136 1840
WIRE 19680 1872 19680 1840
WIRE 20560 1872 20432 1872
WIRE 15472 1888 15456 1888
WIRE 16080 1888 16064 1888
WIRE 16512 1888 16512 1856
WIRE 17104 1888 17104 1856
WIRE 18080 1888 18080 1872
WIRE 18080 1888 18016 1888
WIRE 18192 1888 18080 1888
WIRE 18688 1888 18688 1872
WIRE 18688 1888 18624 1888
WIRE 18800 1888 18688 1888
WIRE 19312 1888 19296 1888
WIRE 20080 1888 20016 1888
WIRE 15456 1904 15456 1888
WIRE 15456 1904 15392 1904
WIRE 15568 1904 15456 1904
WIRE 16064 1904 16064 1888
WIRE 16064 1904 16000 1904
WIRE 16176 1904 16064 1904
WIRE 16688 1904 16672 1904
WIRE 18192 1904 18192 1888
WIRE 18800 1904 18800 1888
WIRE 19296 1904 19296 1888
WIRE 19296 1904 19232 1904
WIRE 19408 1904 19296 1904
WIRE 15568 1920 15568 1904
WIRE 16176 1920 16176 1904
WIRE 16672 1920 16672 1904
WIRE 16672 1920 16608 1920
WIRE 16784 1920 16672 1920
WIRE 17744 1920 17504 1920
WIRE 17872 1920 17744 1920
WIRE 18480 1920 18352 1920
WIRE 19408 1920 19408 1904
WIRE 15120 1936 15120 1920
WIRE 15120 1936 15008 1936
WIRE 15200 1936 15120 1936
WIRE 15248 1936 15200 1936
WIRE 15856 1936 15728 1936
WIRE 16784 1936 16784 1920
WIRE 18960 1936 18960 1920
WIRE 19040 1936 18960 1936
WIRE 19088 1936 19040 1936
WIRE 19504 1936 19504 1920
WIRE 19584 1936 19504 1936
WIRE 19632 1936 19584 1936
WIRE 20368 1936 20336 1936
WIRE 20384 1936 20368 1936
WIRE 16336 1952 16336 1936
WIRE 16416 1952 16336 1952
WIRE 16464 1952 16416 1952
WIRE 16928 1952 16928 1936
WIRE 17008 1952 16928 1952
WIRE 17056 1952 17008 1952
WIRE 18960 1952 18960 1936
WIRE 19504 1952 19504 1936
WIRE 16336 1968 16336 1952
WIRE 16928 1968 16928 1952
WIRE 18144 1968 18016 1968
WIRE 18752 1968 18624 1968
WIRE 15520 1984 15392 1984
WIRE 16128 1984 16000 1984
WIRE 17456 1984 17440 1984
WIRE 17696 1984 17664 1984
WIRE 18272 1984 18272 1712
WIRE 18304 1984 18272 1984
WIRE 19360 1984 19232 1984
WIRE 20080 1984 20016 1984
WIRE 20688 1984 20608 1984
WIRE 15152 2000 15136 2000
WIRE 15648 2000 15648 1728
WIRE 15680 2000 15648 2000
WIRE 16736 2000 16608 2000
WIRE 18848 2016 18848 1408
WIRE 18912 2016 18848 2016
WIRE 19584 2016 19584 1936
WIRE 20336 2016 20320 2016
WIRE 20368 2016 20368 1936
WIRE 20688 2016 20368 2016
WIRE 16256 2032 16256 1424
WIRE 16288 2032 16256 2032
WIRE 17008 2032 17008 1952
WIRE 17968 2032 17920 2032
WIRE 18576 2032 18528 2032
WIRE 15344 2048 15296 2048
WIRE 15952 2048 15904 2048
WIRE 19184 2048 19136 2048
WIRE 19792 2048 19792 1456
WIRE 19792 2048 19680 2048
WIRE 16560 2064 16512 2064
WIRE 17216 2064 17216 1472
WIRE 17216 2064 17104 2064
WIRE 20224 2064 20208 2064
WIRE 17456 2080 17424 2080
WIRE 17696 2080 17664 2080
WIRE 18304 2080 18192 2080
WIRE 18992 2080 18800 2080
WIRE 19536 2080 19536 1792
WIRE 20208 2080 20208 2064
WIRE 20208 2080 20144 2080
WIRE 20320 2080 20208 2080
WIRE 15152 2096 15120 2096
WIRE 15680 2096 15568 2096
WIRE 16368 2096 16176 2096
WIRE 16960 2096 16960 1808
WIRE 19520 2096 19520 1808
WIRE 19520 2096 19408 2096
WIRE 20320 2096 20320 2080
WIRE 16944 2112 16944 1824
WIRE 16944 2112 16784 2112
WIRE 17920 2112 17904 2112
WIRE 18528 2112 18512 2112
WIRE 18832 2112 18832 1856
WIRE 18912 2112 18832 2112
WIRE 19040 2112 19040 1936
WIRE 20496 2112 20480 2112
WIRE 15296 2128 15280 2128
WIRE 15904 2128 15888 2128
WIRE 16240 2128 16240 1872
WIRE 16288 2128 16240 2128
WIRE 16416 2128 16416 1952
WIRE 19136 2128 19120 2128
WIRE 19680 2128 19664 2128
WIRE 20480 2128 20480 2112
WIRE 20480 2128 20416 2128
WIRE 20592 2128 20480 2128
WIRE 16512 2144 16496 2144
WIRE 17104 2144 17088 2144
WIRE 20592 2144 20592 2128
WIRE 19456 2160 19456 2016
WIRE 19776 2160 19776 1712
WIRE 19776 2160 19456 2160
WIRE 20144 2160 20112 2160
WIRE 20272 2160 20144 2160
WIRE 16880 2176 16880 2032
WIRE 17200 2176 17200 1728
WIRE 17200 2176 16880 2176
WIRE 18992 2176 18992 2080
WIRE 19520 2176 19520 2096
WIRE 19536 2176 19520 2176
WIRE 16368 2192 16368 2096
WIRE 16944 2192 16944 2112
WIRE 16960 2192 16944 2192
WIRE 20544 2208 20416 2208
WIRE 20064 2224 20000 2224
WIRE 20352 2272 20320 2272
WIRE 20368 2272 20352 2272
WIRE 19728 2304 18704 2304
WIRE 20064 2320 20000 2320
WIRE 20672 2320 20592 2320
WIRE 17184 2336 16160 2336
WIRE 19648 2352 19312 2352
WIRE 20320 2352 20304 2352
WIRE 20352 2352 20352 2272
WIRE 20672 2352 20352 2352
WIRE 17104 2384 16768 2384
WIRE 18864 2384 18848 2384
WIRE 19456 2384 19440 2384
WIRE 18848 2400 18848 2384
WIRE 18848 2400 18784 2400
WIRE 18960 2400 18848 2400
WIRE 19440 2400 19440 2384
WIRE 19440 2400 19360 2400
WIRE 19536 2400 19440 2400
WIRE 20240 2400 20224 2400
WIRE 16320 2416 16304 2416
WIRE 16912 2416 16896 2416
WIRE 18960 2416 18960 2400
WIRE 20224 2416 20224 2400
WIRE 20224 2416 20160 2416
WIRE 20336 2416 20224 2416
WIRE 16304 2432 16304 2416
WIRE 16304 2432 16240 2432
WIRE 16416 2432 16304 2432
WIRE 16896 2432 16896 2416
WIRE 16896 2432 16816 2432
WIRE 16992 2432 16896 2432
WIRE 19136 2432 19120 2432
WIRE 19536 2432 19536 2400
WIRE 20336 2432 20336 2416
WIRE 16416 2448 16416 2432
WIRE 18288 2448 18272 2448
WIRE 18560 2448 18544 2448
WIRE 19120 2448 19120 2432
WIRE 19120 2448 19056 2448
WIRE 19232 2448 19120 2448
WIRE 20512 2448 20496 2448
WIRE 16592 2464 16576 2464
WIRE 16992 2464 16992 2432
WIRE 18272 2464 18272 2448
WIRE 18272 2464 18208 2464
WIRE 18384 2464 18272 2464
WIRE 18544 2464 18544 2448
WIRE 18544 2464 18480 2464
WIRE 18656 2464 18544 2464
WIRE 19232 2464 19232 2448
WIRE 20496 2464 20496 2448
WIRE 20496 2464 20432 2464
WIRE 20608 2464 20496 2464
WIRE 15744 2480 15728 2480
WIRE 16016 2480 16000 2480
WIRE 16576 2480 16576 2464
WIRE 16576 2480 16512 2480
WIRE 16688 2480 16576 2480
WIRE 18384 2480 18384 2464
WIRE 18656 2480 18656 2464
WIRE 18912 2480 18784 2480
WIRE 20608 2480 20608 2464
WIRE 15728 2496 15728 2480
WIRE 15728 2496 15664 2496
WIRE 15840 2496 15728 2496
WIRE 16000 2496 16000 2480
WIRE 16000 2496 15936 2496
WIRE 16112 2496 16000 2496
WIRE 16688 2496 16688 2480
WIRE 19360 2496 19360 2480
WIRE 19440 2496 19360 2496
WIRE 19488 2496 19440 2496
WIRE 20160 2496 20128 2496
WIRE 20288 2496 20160 2496
WIRE 15840 2512 15840 2496
WIRE 16112 2512 16112 2496
WIRE 16368 2512 16240 2512
WIRE 19360 2512 19360 2496
WIRE 16816 2528 16816 2512
WIRE 16896 2528 16816 2528
WIRE 16944 2528 16896 2528
WIRE 19184 2528 19056 2528
WIRE 16816 2544 16816 2528
WIRE 18336 2544 18208 2544
WIRE 18608 2544 18480 2544
WIRE 18736 2544 18736 2288
WIRE 20560 2544 20432 2544
WIRE 16640 2560 16512 2560
WIRE 20080 2560 20016 2560
WIRE 15792 2576 15664 2576
WIRE 16064 2576 15936 2576
WIRE 16192 2576 16192 2320
WIRE 19312 2576 19312 2352
WIRE 19440 2576 19440 2496
WIRE 19008 2592 18960 2592
WIRE 16768 2608 16768 2384
WIRE 16896 2608 16896 2528
WIRE 18128 2608 18128 2592
WIRE 18160 2608 18128 2608
WIRE 19632 2608 19536 2608
WIRE 19728 2608 19728 2304
WIRE 19728 2608 19632 2608
WIRE 19776 2608 19728 2608
WIRE 20368 2608 20336 2608
WIRE 20384 2608 20368 2608
WIRE 16464 2624 16416 2624
WIRE 18736 2624 18736 2544
WIRE 18736 2624 18720 2624
WIRE 15584 2640 15584 2624
WIRE 15616 2640 15584 2640
WIRE 17088 2640 16992 2640
WIRE 17184 2640 17184 2336
WIRE 17184 2640 17088 2640
WIRE 17232 2640 17184 2640
WIRE 19392 2640 19232 2640
WIRE 16192 2656 16192 2576
WIRE 16192 2656 16176 2656
WIRE 18736 2656 18736 2640
WIRE 18736 2656 18656 2656
WIRE 20080 2656 20016 2656
WIRE 20688 2656 20608 2656
WIRE 16848 2672 16688 2672
WIRE 18960 2672 18944 2672
WIRE 16192 2688 16192 2672
WIRE 16192 2688 16112 2688
WIRE 18720 2688 18720 2624
WIRE 19392 2688 18720 2688
WIRE 19536 2688 19520 2688
WIRE 20336 2688 20320 2688
WIRE 20368 2688 20368 2608
WIRE 20688 2688 20368 2688
WIRE 16416 2704 16400 2704
WIRE 18432 2704 18432 2608
WIRE 19376 2704 18432 2704
WIRE 16176 2720 16176 2656
WIRE 16848 2720 16176 2720
WIRE 16992 2720 16976 2720
WIRE 17616 2720 17600 2720
WIRE 18288 2720 18272 2720
WIRE 18384 2720 18384 2656
WIRE 18400 2720 18384 2720
WIRE 18912 2720 18896 2720
WIRE 19456 2720 19440 2720
WIRE 15888 2736 15888 2640
WIRE 16832 2736 15888 2736
WIRE 17600 2736 17600 2720
WIRE 17600 2736 17536 2736
WIRE 17712 2736 17600 2736
WIRE 18272 2736 18272 2720
WIRE 18272 2736 18208 2736
WIRE 18384 2736 18272 2736
WIRE 18896 2736 18896 2720
WIRE 18896 2736 18816 2736
WIRE 18992 2736 18896 2736
WIRE 19440 2736 19440 2720
WIRE 19440 2736 19360 2736
WIRE 19536 2736 19440 2736
WIRE 15136 2752 15120 2752
WIRE 15744 2752 15728 2752
WIRE 15840 2752 15840 2688
WIRE 15856 2752 15840 2752
WIRE 16368 2752 16352 2752
WIRE 16912 2752 16896 2752
WIRE 17712 2752 17712 2736
WIRE 18384 2752 18384 2736
WIRE 18400 2752 18400 2720
WIRE 18688 2752 18400 2752
WIRE 15120 2768 15120 2752
WIRE 15120 2768 15056 2768
WIRE 15232 2768 15120 2768
WIRE 15728 2768 15728 2752
WIRE 15728 2768 15664 2768
WIRE 15840 2768 15728 2768
WIRE 16352 2768 16352 2752
WIRE 16352 2768 16272 2768
WIRE 16448 2768 16352 2768
WIRE 16896 2768 16896 2752
WIRE 16896 2768 16816 2768
WIRE 16992 2768 16896 2768
WIRE 17888 2768 17872 2768
WIRE 18560 2768 18544 2768
WIRE 18992 2768 18992 2736
WIRE 19536 2768 19536 2736
WIRE 15232 2784 15232 2768
WIRE 15840 2784 15840 2768
WIRE 15856 2784 15856 2752
WIRE 16144 2784 15856 2784
WIRE 17872 2784 17872 2768
WIRE 17872 2784 17808 2784
WIRE 17984 2784 17872 2784
WIRE 18544 2784 18544 2768
WIRE 18544 2784 18480 2784
WIRE 18656 2784 18544 2784
WIRE 19168 2784 19152 2784
WIRE 15408 2800 15392 2800
WIRE 16016 2800 16000 2800
WIRE 16448 2800 16448 2768
WIRE 16992 2800 16992 2768
WIRE 17984 2800 17984 2784
WIRE 18656 2800 18656 2784
WIRE 19152 2800 19152 2784
WIRE 19152 2800 19088 2800
WIRE 19264 2800 19152 2800
WIRE 15392 2816 15392 2800
WIRE 15392 2816 15328 2816
WIRE 15504 2816 15392 2816
WIRE 16000 2816 16000 2800
WIRE 16000 2816 15936 2816
WIRE 16112 2816 16000 2816
WIRE 16624 2816 16608 2816
WIRE 17664 2816 17536 2816
WIRE 18336 2816 18208 2816
WIRE 19264 2816 19264 2800
WIRE 15504 2832 15504 2816
WIRE 16112 2832 16112 2816
WIRE 16608 2832 16608 2816
WIRE 16608 2832 16544 2832
WIRE 16720 2832 16608 2832
WIRE 18816 2832 18816 2816
WIRE 18896 2832 18816 2832
WIRE 18944 2832 18896 2832
WIRE 19360 2832 19360 2816
WIRE 19440 2832 19360 2832
WIRE 19488 2832 19440 2832
WIRE 15056 2848 14816 2848
WIRE 15184 2848 15056 2848
WIRE 15792 2848 15664 2848
WIRE 16720 2848 16720 2832
WIRE 18816 2848 18816 2832
WIRE 19360 2848 19360 2832
WIRE 16272 2864 16272 2848
WIRE 16352 2864 16272 2864
WIRE 16400 2864 16352 2864
WIRE 16816 2864 16816 2848
WIRE 16896 2864 16816 2864
WIRE 16944 2864 16896 2864
WIRE 17936 2864 17808 2864
WIRE 18608 2864 18480 2864
WIRE 16272 2880 16272 2864
WIRE 16816 2880 16816 2864
WIRE 17488 2880 17472 2880
WIRE 18128 2880 18128 2608
WIRE 18160 2880 18128 2880
WIRE 19216 2880 19088 2880
WIRE 15456 2896 15328 2896
WIRE 16064 2896 15936 2896
WIRE 14768 2912 14752 2912
WIRE 15008 2912 14976 2912
WIRE 15584 2912 15584 2640
WIRE 15616 2912 15584 2912
WIRE 16672 2912 16544 2912
WIRE 18704 2912 18704 2304
WIRE 18768 2912 18704 2912
WIRE 19440 2912 19440 2832
WIRE 17760 2928 17712 2928
WIRE 18432 2928 18384 2928
WIRE 16160 2944 16160 2336
WIRE 16224 2944 16160 2944
WIRE 16896 2944 16896 2864
WIRE 19040 2944 18992 2944
WIRE 19648 2944 19648 2352
WIRE 19648 2944 19536 2944
WIRE 15280 2960 15232 2960
WIRE 15888 2960 15840 2960
WIRE 16496 2976 16448 2976
WIRE 17104 2976 17104 2384
WIRE 17104 2976 16992 2976
WIRE 17488 2976 17456 2976
WIRE 18160 2976 17984 2976
WIRE 18848 2976 18656 2976
WIRE 19392 2976 19392 2688
WIRE 19376 2992 19376 2704
WIRE 19376 2992 19264 2992
WIRE 14768 3008 14736 3008
WIRE 15008 3008 14976 3008
WIRE 15616 3008 15504 3008
WIRE 16304 3008 16112 3008
WIRE 16848 3008 16848 2720
WIRE 17712 3008 17696 3008
WIRE 18384 3008 18368 3008
WIRE 18688 3008 18688 2752
WIRE 18768 3008 18688 3008
WIRE 18896 3008 18896 2832
WIRE 16832 3024 16832 2736
WIRE 16832 3024 16720 3024
WIRE 18992 3024 18976 3024
WIRE 19536 3024 19520 3024
WIRE 15232 3040 15216 3040
WIRE 15840 3040 15824 3040
WIRE 16144 3040 16144 2784
WIRE 16224 3040 16144 3040
WIRE 16352 3040 16352 2864
WIRE 16448 3056 16432 3056
WIRE 16992 3056 16976 3056
WIRE 19312 3056 19312 2912
WIRE 19632 3056 19632 2608
WIRE 19632 3056 19312 3056
WIRE 18848 3072 18848 2976
WIRE 19376 3072 19376 2992
WIRE 19392 3072 19376 3072
WIRE 16768 3088 16768 2944
WIRE 17088 3088 17088 2640
WIRE 17088 3088 16768 3088
WIRE 16304 3104 16304 3008
WIRE 16832 3104 16832 3024
WIRE 16848 3104 16832 3104
FLAG 20688 1984 Level1_Load
FLAG 20688 2016 !Level1_Load
FLAG 20688 2656 Level3_Load
FLAG 20688 2688 !Level3_Load
FLAG 20672 2320 Level2_Load
FLAG 20672 2352 !Level2_Load
FLAG 20128 2016 0
FLAG 20432 1968 0
FLAG 20240 1728 VDD
FLAG 20512 1776 VDD
FLAG 20320 2016 VSS
FLAG 20528 1984 VSS
FLAG 20016 1888 Level1
FLAG 20112 2352 0
FLAG 20416 2304 0
FLAG 20224 2064 VDD
FLAG 20496 2112 VDD
FLAG 20304 2352 VSS
FLAG 20512 2320 VSS
FLAG 20000 2224 Level2
FLAG 20128 2688 0
FLAG 20432 2640 0
FLAG 20240 2400 VDD
FLAG 20512 2448 VDD
FLAG 20320 2688 VSS
FLAG 20528 2656 VSS
FLAG 20016 2560 Level3
FLAG 15664 2672 0
FLAG 15744 2480 VDD
FLAG 15760 2688 VSS
FLAG 15664 3040 0
FLAG 15936 2992 0
FLAG 15744 2752 VDD
FLAG 16016 2800 VDD
FLAG 15824 3040 VSS
FLAG 16032 3008 VSS
FLAG 15936 2672 0
FLAG 16016 2480 VDD
FLAG 16032 2688 VSS
FLAG 16352 3136 0
FLAG 16272 3072 0
FLAG 16544 3008 0
FLAG 16368 2752 VDD
FLAG 16624 2816 VDD
FLAG 16432 3056 VSS
FLAG 16640 3024 VSS
FLAG 16240 2704 0
FLAG 16512 2656 0
FLAG 16320 2416 VDD
FLAG 16592 2464 VDD
FLAG 16400 2704 VSS
FLAG 16608 2672 VSS
FLAG 16896 2704 0
FLAG 16816 2640 0
FLAG 16912 2416 VDD
FLAG 16976 2720 VSS
FLAG 16896 3136 0
FLAG 16816 2976 0
FLAG 16912 2752 VDD
FLAG 16976 3056 VSS
FLAG 16192 2320 CLK
FLAG 15584 2624 Shift_Load
FLAG 15056 3136 0
FLAG 15328 2992 0
FLAG 15136 2752 VDD
FLAG 15408 2800 VDD
FLAG 15216 3040 VSS
FLAG 15424 3008 VSS
FLAG 14976 3008 !Reset
FLAG 17232 2640 Level2
FLAG 17872 1232 Shift_Load
FLAG 16576 1088 !Reset
FLAG 14976 2912 Level1
FLAG 14816 3136 0
FLAG 14736 3008 !Reset
FLAG 14752 2912 Level3
FLAG 14768 3104 !Dir
FLAG 15008 3104 Dir
FLAG 18640 1152 0
FLAG 18464 896 VDD
FLAG 18720 960 VDD
FLAG 18528 1200 VSS
FLAG 18736 1168 VSS
FLAG 18288 1008 Shift_Direction
FLAG 18880 1216 Dir
FLAG 18896 1168 !Dir
FLAG 17104 1120 0
FLAG 16928 864 VDD
FLAG 17184 928 VDD
FLAG 16992 1168 VSS
FLAG 17200 1136 VSS
FLAG 16832 976 Shift_Loading
FLAG 16448 864 VDD
FLAG 16512 1168 VSS
FLAG 16352 976 Shift_Reset
FLAG 17872 1296 !Shift_Load
FLAG 15728 1760 0
FLAG 15808 1568 VDD
FLAG 15824 1776 VSS
FLAG 15728 2128 0
FLAG 16000 2080 0
FLAG 15808 1840 VDD
FLAG 16080 1888 VDD
FLAG 15888 2128 VSS
FLAG 16096 2096 VSS
FLAG 16048 1760 0
FLAG 16128 1568 VDD
FLAG 16144 1776 VSS
FLAG 16416 2224 0
FLAG 16336 2160 0
FLAG 16608 2096 0
FLAG 16432 1840 VDD
FLAG 16688 1904 VDD
FLAG 16496 2144 VSS
FLAG 16704 2112 VSS
FLAG 16352 1792 0
FLAG 16624 1744 0
FLAG 16432 1504 VDD
FLAG 16704 1552 VDD
FLAG 16512 1792 VSS
FLAG 16720 1760 VSS
FLAG 17008 1792 0
FLAG 16928 1728 0
FLAG 17024 1504 VDD
FLAG 17088 1808 VSS
FLAG 17008 2224 0
FLAG 16928 2064 0
FLAG 17024 1840 VDD
FLAG 17088 2144 VSS
FLAG 16288 1408 CLK
FLAG 15648 1712 Shift_Load
FLAG 17344 1728 Level0
FLAG 15008 2032 0
FLAG 15392 2080 0
FLAG 15216 1824 VDD
FLAG 15472 1888 VDD
FLAG 15280 2128 VSS
FLAG 15488 2096 VSS
FLAG 15200 2224 0
FLAG 15120 2096 !Reset
FLAG 15136 2000 Level1
FLAG 15152 2192 !Dir
FLAG 14960 2000 Startup_Pulse
FLAG 18208 2640 0
FLAG 18288 2448 VDD
FLAG 18304 2656 VSS
FLAG 18208 3008 0
FLAG 18480 2960 0
FLAG 18288 2720 VDD
FLAG 18560 2768 VDD
FLAG 18368 3008 VSS
FLAG 18576 2976 VSS
FLAG 18480 2640 0
FLAG 18560 2448 VDD
FLAG 18576 2656 VSS
FLAG 18896 3104 0
FLAG 18816 3040 0
FLAG 19088 2976 0
FLAG 18912 2720 VDD
FLAG 19168 2784 VDD
FLAG 18976 3024 VSS
FLAG 19184 2992 VSS
FLAG 18784 2672 0
FLAG 19056 2624 0
FLAG 18864 2384 VDD
FLAG 19136 2432 VDD
FLAG 18944 2672 VSS
FLAG 19152 2640 VSS
FLAG 19440 2672 0
FLAG 19360 2608 0
FLAG 19456 2384 VDD
FLAG 19520 2688 VSS
FLAG 19440 3104 0
FLAG 19360 2944 0
FLAG 19456 2720 VDD
FLAG 19520 3024 VSS
FLAG 18736 2288 CLK
FLAG 18128 2592 Shift_Load
FLAG 17536 3104 0
FLAG 17808 2960 0
FLAG 17616 2720 VDD
FLAG 17888 2768 VDD
FLAG 17696 3008 VSS
FLAG 17904 2976 VSS
FLAG 17456 2976 !Reset
FLAG 17472 2880 Level2
FLAG 17488 3072 Dir
FLAG 19776 2608 Level3
FLAG 18352 1744 0
FLAG 18432 1552 VDD
FLAG 18448 1760 VSS
FLAG 18352 2112 0
FLAG 18624 2064 0
FLAG 18432 1824 VDD
FLAG 18704 1872 VDD
FLAG 18512 2112 VSS
FLAG 18720 2080 VSS
FLAG 18624 1744 0
FLAG 18704 1552 VDD
FLAG 18720 1760 VSS
FLAG 19040 2208 0
FLAG 18960 2144 0
FLAG 19232 2080 0
FLAG 19056 1824 VDD
FLAG 19312 1888 VDD
FLAG 19120 2128 VSS
FLAG 19328 2096 VSS
FLAG 18928 1776 0
FLAG 19200 1728 0
FLAG 19008 1488 VDD
FLAG 19280 1536 VDD
FLAG 19088 1776 VSS
FLAG 19296 1744 VSS
FLAG 19584 1776 0
FLAG 19504 1712 0
FLAG 19600 1488 VDD
FLAG 19664 1792 VSS
FLAG 19584 2208 0
FLAG 19504 2048 0
FLAG 19600 1824 VDD
FLAG 19664 2128 VSS
FLAG 18880 1392 CLK
FLAG 18272 1696 Shift_Load
FLAG 17744 2208 0
FLAG 18016 2064 0
FLAG 17824 1824 VDD
FLAG 18096 1872 VDD
FLAG 17904 2112 VSS
FLAG 18112 2080 VSS
FLAG 17664 2080 !Reset
FLAG 19920 1712 Level1
FLAG 17664 1984 Level0
FLAG 17504 2208 0
FLAG 17424 2080 !Reset
FLAG 17440 1984 Level2
FLAG 17456 2176 !Dir
FLAG 17696 2176 Dir
FLAG 19392 1200 0
FLAG 19312 944 VDD
FLAG 19472 1008 VDD
FLAG 19280 1248 VSS
FLAG 19488 1216 VSS
FLAG 19600 1216 Stack_Loading
FLAG 19200 1056 Stack_Load
FLAG 20016 1984 Stack_Loading
FLAG 20000 2320 Stack_Loading
FLAG 20016 2656 Stack_Loading
FLAG 17504 976 VDD
FLAG 17520 1184 VSS
FLAG 17664 1216 0
FLAG 17744 1024 VDD
FLAG 17760 1232 VSS
FLAG 17424 1264 0
FLAG 17376 1232 CLK
SYMBOL njf 20080 1824 R0
WINDOW 0 56 32 Invisible 2
WINDOW 3 56 72 Invisible 2
SYMATTR InstName J0
SYMATTR Value DR
SYMBOL res 20144 1728 R0
WINDOW 0 56 32 Invisible 2
WINDOW 3 56 72 Invisible 2
SYMATTR InstName R0
SYMATTR Value 100k
SYMBOL njf 20288 1760 R0
WINDOW 0 56 32 Invisible 2
WINDOW 3 56 72 Invisible 2
SYMATTR InstName J1
SYMATTR Value DR
SYMBOL res 20320 1840 R0
WINDOW 0 38 53 Invisible 2
WINDOW 3 -35 51 Invisible 2
SYMATTR InstName R1
SYMATTR Value 1k
SYMBOL res 20320 1920 R0
WINDOW 0 41 61 Invisible 2
WINDOW 3 -53 52 Invisible 2
SYMATTR InstName R2
SYMATTR Value 4.8k
SYMBOL njf 20080 1920 R0
WINDOW 0 56 32 Invisible 2
WINDOW 3 56 72 Invisible 2
SYMATTR InstName J2
SYMATTR Value DR
SYMBOL njf 20384 1872 R0
WINDOW 0 56 32 Invisible 2
WINDOW 3 56 72 Invisible 2
SYMATTR InstName J3
SYMATTR Value DR
SYMBOL res 20416 1776 R0
WINDOW 0 56 32 Invisible 2
WINDOW 3 56 72 Invisible 2
SYMATTR InstName R3
SYMATTR Value 50k
SYMBOL njf 20560 1808 R0
WINDOW 0 56 32 Invisible 2
WINDOW 3 56 72 Invisible 2
SYMATTR InstName J4
SYMATTR Value DR
SYMBOL res 20592 1888 R0
WINDOW 0 37 24 Invisible 2
WINDOW 3 -30 25 Invisible 2
SYMATTR InstName R4
SYMATTR Value 1k
SYMBOL res 20624 1968 R90
WINDOW 0 59 66 VBottom 2
WINDOW 3 34 13 VTop 2
SYMATTR InstName R5
SYMATTR Value 4.5k
SYMBOL njf 20064 2160 R0
WINDOW 0 56 32 Invisible 2
WINDOW 3 56 72 Invisible 2
SYMATTR InstName J5
SYMATTR Value DR
SYMBOL res 20128 2064 R0
WINDOW 0 56 32 Invisible 2
WINDOW 3 56 72 Invisible 2
SYMATTR InstName R6
SYMATTR Value 100k
SYMBOL njf 20272 2096 R0
WINDOW 0 56 32 Invisible 2
WINDOW 3 56 72 Invisible 2
SYMATTR InstName J6
SYMATTR Value DR
SYMBOL res 20304 2176 R0
WINDOW 0 38 53 Invisible 2
WINDOW 3 -35 51 Invisible 2
SYMATTR InstName R7
SYMATTR Value 1k
SYMBOL res 20304 2256 R0
WINDOW 0 41 61 Invisible 2
WINDOW 3 -53 52 Invisible 2
SYMATTR InstName R8
SYMATTR Value 4.8k
SYMBOL njf 20064 2256 R0
WINDOW 0 56 32 Invisible 2
WINDOW 3 56 72 Invisible 2
SYMATTR InstName J7
SYMATTR Value DR
SYMBOL njf 20368 2208 R0
WINDOW 0 56 32 Invisible 2
WINDOW 3 56 72 Invisible 2
SYMATTR InstName J8
SYMATTR Value DR
SYMBOL res 20400 2112 R0
WINDOW 0 56 32 Invisible 2
WINDOW 3 56 72 Invisible 2
SYMATTR InstName R9
SYMATTR Value 50k
SYMBOL njf 20544 2144 R0
WINDOW 0 56 32 Invisible 2
WINDOW 3 56 72 Invisible 2
SYMATTR InstName J9
SYMATTR Value DR
SYMBOL res 20576 2224 R0
WINDOW 0 37 24 Invisible 2
WINDOW 3 -30 25 Invisible 2
SYMATTR InstName R10
SYMATTR Value 1k
SYMBOL res 20608 2304 R90
WINDOW 0 59 66 VBottom 2
WINDOW 3 34 13 VTop 2
SYMATTR InstName R11
SYMATTR Value 4.5k
SYMBOL njf 20080 2496 R0
WINDOW 0 56 32 Invisible 2
WINDOW 3 56 72 Invisible 2
SYMATTR InstName J10
SYMATTR Value DR
SYMBOL res 20144 2400 R0
WINDOW 0 56 32 Invisible 2
WINDOW 3 56 72 Invisible 2
SYMATTR InstName R12
SYMATTR Value 100k
SYMBOL njf 20288 2432 R0
WINDOW 0 56 32 Invisible 2
WINDOW 3 56 72 Invisible 2
SYMATTR InstName J11
SYMATTR Value DR
SYMBOL res 20320 2512 R0
WINDOW 0 38 53 Invisible 2
WINDOW 3 -35 51 Invisible 2
SYMATTR InstName R13
SYMATTR Value 1k
SYMBOL res 20320 2592 R0
WINDOW 0 41 61 Invisible 2
WINDOW 3 -53 52 Invisible 2
SYMATTR InstName R14
SYMATTR Value 4.8k
SYMBOL njf 20080 2592 R0
WINDOW 0 56 32 Invisible 2
WINDOW 3 56 72 Invisible 2
SYMATTR InstName J12
SYMATTR Value DR
SYMBOL njf 20384 2544 R0
WINDOW 0 56 32 Invisible 2
WINDOW 3 56 72 Invisible 2
SYMATTR InstName J13
SYMATTR Value DR
SYMBOL res 20416 2448 R0
WINDOW 0 56 32 Invisible 2
WINDOW 3 56 72 Invisible 2
SYMATTR InstName R15
SYMATTR Value 50k
SYMBOL njf 20560 2480 R0
WINDOW 0 56 32 Invisible 2
WINDOW 3 56 72 Invisible 2
SYMATTR InstName J14
SYMATTR Value DR
SYMBOL res 20592 2560 R0
WINDOW 0 37 24 Invisible 2
WINDOW 3 -30 25 Invisible 2
SYMATTR InstName R16
SYMATTR Value 1k
SYMBOL res 20624 2640 R90
WINDOW 0 59 66 VBottom 2
WINDOW 3 34 13 VTop 2
SYMATTR InstName R17
SYMATTR Value 4.5k
SYMBOL njf 15616 2576 R0
WINDOW 0 56 32 Invisible 2
WINDOW 3 56 72 Invisible 2
SYMATTR InstName J15
SYMATTR Value DR
SYMBOL res 15648 2480 R0
WINDOW 0 56 32 Invisible 2
WINDOW 3 56 72 Invisible 2
SYMATTR InstName R18
SYMATTR Value 50k
SYMBOL njf 15792 2512 R0
WINDOW 0 56 32 Invisible 2
WINDOW 3 56 72 Invisible 2
SYMATTR InstName J16
SYMATTR Value DR
SYMBOL res 15824 2592 R0
WINDOW 0 37 24 Invisible 2
WINDOW 3 -30 25 Invisible 2
SYMATTR InstName R19
SYMATTR Value 1k
SYMBOL res 15856 2672 R90
WINDOW 0 59 66 VBottom 2
WINDOW 3 34 13 VTop 2
SYMATTR InstName R20
SYMATTR Value 4.5k
SYMBOL njf 15616 2848 R0
WINDOW 0 56 32 Invisible 2
WINDOW 3 56 72 Invisible 2
SYMATTR InstName J17
SYMATTR Value DR
SYMBOL res 15648 2752 R0
WINDOW 0 56 32 Invisible 2
WINDOW 3 56 72 Invisible 2
SYMATTR InstName R21
SYMATTR Value 100k
SYMBOL njf 15792 2784 R0
WINDOW 0 56 32 Invisible 2
WINDOW 3 56 72 Invisible 2
SYMATTR InstName J18
SYMATTR Value DR
SYMBOL res 15824 2864 R0
WINDOW 0 38 53 Invisible 2
WINDOW 3 -35 51 Invisible 2
SYMATTR InstName R22
SYMATTR Value 1k
SYMBOL res 15824 2944 R0
WINDOW 0 41 61 Invisible 2
WINDOW 3 -53 52 Invisible 2
SYMATTR InstName R23
SYMATTR Value 4.8k
SYMBOL njf 15616 2944 R0
WINDOW 0 56 32 Invisible 2
WINDOW 3 56 72 Invisible 2
SYMATTR InstName J19
SYMATTR Value DR
SYMBOL njf 15888 2896 R0
WINDOW 0 56 32 Invisible 2
WINDOW 3 56 72 Invisible 2
SYMATTR InstName J20
SYMATTR Value DR
SYMBOL res 15920 2800 R0
WINDOW 0 56 32 Invisible 2
WINDOW 3 56 72 Invisible 2
SYMATTR InstName R24
SYMATTR Value 50k
SYMBOL njf 16064 2832 R0
WINDOW 0 56 32 Invisible 2
WINDOW 3 56 72 Invisible 2
SYMATTR InstName J21
SYMATTR Value DR
SYMBOL res 16096 2912 R0
WINDOW 0 31 62 Invisible 2
WINDOW 3 -30 25 Invisible 2
SYMATTR InstName R25
SYMATTR Value 1k
SYMBOL res 16128 2992 R90
WINDOW 0 59 66 VBottom 2
WINDOW 3 34 13 VTop 2
SYMATTR InstName R26
SYMATTR Value 4.5k
SYMBOL njf 15888 2576 R0
WINDOW 0 56 32 Invisible 2
WINDOW 3 56 72 Invisible 2
SYMATTR InstName J22
SYMATTR Value DR
SYMBOL res 15920 2480 R0
WINDOW 0 56 32 Invisible 2
WINDOW 3 56 72 Invisible 2
SYMATTR InstName R27