Version 4.1
SHEET 1 109444 42780
WIRE 28112 2832 28096 2832
WIRE 31280 2832 31264 2832
WIRE 27408 2848 27392 2848
WIRE 28096 2848 28096 2832
WIRE 28096 2848 28016 2848
WIRE 28192 2848 28096 2848
WIRE 30576 2848 30560 2848
WIRE 31264 2848 31264 2832
WIRE 31264 2848 31184 2848
WIRE 31360 2848 31264 2848
WIRE 27392 2864 27392 2848
WIRE 27392 2864 27312 2864
WIRE 27488 2864 27392 2864
WIRE 30560 2864 30560 2848
WIRE 30560 2864 30480 2864
WIRE 30656 2864 30560 2864
WIRE 24864 2880 24848 2880
WIRE 28192 2880 28192 2848
WIRE 31360 2880 31360 2848
WIRE 24160 2896 24144 2896
WIRE 24848 2896 24848 2880
WIRE 24848 2896 24768 2896
WIRE 24944 2896 24848 2896
WIRE 27488 2896 27488 2864
WIRE 28368 2896 28352 2896
WIRE 30656 2896 30656 2864
WIRE 31536 2896 31520 2896
WIRE 24144 2912 24144 2896
WIRE 24144 2912 24064 2912
WIRE 24240 2912 24144 2912
WIRE 27664 2912 27648 2912
WIRE 28352 2912 28352 2896
WIRE 28352 2912 28288 2912
WIRE 28464 2912 28352 2912
WIRE 30832 2912 30816 2912
WIRE 31520 2912 31520 2896
WIRE 31520 2912 31456 2912
WIRE 31632 2912 31520 2912
WIRE 24944 2928 24944 2896
WIRE 27648 2928 27648 2912
WIRE 27648 2928 27584 2928
WIRE 27760 2928 27648 2928
WIRE 28464 2928 28464 2912
WIRE 30816 2928 30816 2912
WIRE 30816 2928 30752 2928
WIRE 30928 2928 30816 2928
WIRE 31632 2928 31632 2912
WIRE 24240 2944 24240 2912
WIRE 25120 2944 25104 2944
WIRE 27760 2944 27760 2928
WIRE 28016 2944 28016 2928
WIRE 28016 2944 27936 2944
WIRE 28144 2944 28016 2944
WIRE 30928 2944 30928 2928
WIRE 31184 2944 31184 2928
WIRE 31184 2944 31104 2944
WIRE 31312 2944 31184 2944
WIRE 24416 2960 24400 2960
WIRE 25104 2960 25104 2944
WIRE 25104 2960 25040 2960
WIRE 25216 2960 25104 2960
WIRE 27312 2960 27312 2944
WIRE 27312 2960 27232 2960
WIRE 27440 2960 27312 2960
WIRE 30480 2960 30480 2944
WIRE 30480 2960 30400 2960
WIRE 30608 2960 30480 2960
WIRE 24400 2976 24400 2960
WIRE 24400 2976 24336 2976
WIRE 24512 2976 24400 2976
WIRE 25216 2976 25216 2960
WIRE 24512 2992 24512 2976
WIRE 24768 2992 24768 2976
WIRE 24768 2992 24688 2992
WIRE 24896 2992 24768 2992
WIRE 28416 2992 28288 2992
WIRE 31584 2992 31456 2992
WIRE 24064 3008 24064 2992
WIRE 24064 3008 23984 3008
WIRE 24192 3008 24064 3008
WIRE 27712 3008 27584 3008
WIRE 30880 3008 30752 3008
WIRE 25168 3040 25040 3040
WIRE 24464 3056 24336 3056
WIRE 28240 3056 28192 3056
WIRE 31408 3056 31360 3056
WIRE 27536 3072 27488 3072
WIRE 30704 3072 30656 3072
WIRE 24992 3104 24944 3104
WIRE 28544 3104 28464 3104
WIRE 31712 3104 31632 3104
WIRE 24288 3120 24240 3120
WIRE 27840 3120 27760 3120
WIRE 31008 3120 30928 3120
WIRE 28192 3136 28176 3136
WIRE 31360 3136 31344 3136
WIRE 25296 3152 25216 3152
WIRE 27488 3152 27472 3152
WIRE 30656 3152 30640 3152
WIRE 24592 3168 24512 3168
WIRE 24944 3184 24928 3184
WIRE 24240 3200 24224 3200
WIRE 27408 3216 27392 3216
WIRE 28144 3216 28128 3216
WIRE 30576 3216 30560 3216
WIRE 31312 3216 31296 3216
WIRE 27392 3232 27392 3216
WIRE 27392 3232 27312 3232
WIRE 27488 3232 27392 3232
WIRE 28128 3232 28128 3216
WIRE 28128 3232 28048 3232
WIRE 28224 3232 28128 3232
WIRE 30560 3232 30560 3216
WIRE 30560 3232 30480 3232
WIRE 30656 3232 30560 3232
WIRE 31296 3232 31296 3216
WIRE 31296 3232 31216 3232
WIRE 31392 3232 31296 3232
WIRE 24160 3264 24144 3264
WIRE 24896 3264 24880 3264
WIRE 27488 3264 27488 3232
WIRE 28224 3264 28224 3232
WIRE 30656 3264 30656 3232
WIRE 31392 3264 31392 3232
WIRE 24144 3280 24144 3264
WIRE 24144 3280 24064 3280
WIRE 24240 3280 24144 3280
WIRE 24880 3280 24880 3264
WIRE 24880 3280 24800 3280
WIRE 24976 3280 24880 3280
WIRE 27664 3280 27648 3280
WIRE 28400 3280 28384 3280
WIRE 30832 3280 30816 3280
WIRE 31568 3280 31552 3280
WIRE 27648 3296 27648 3280
WIRE 27648 3296 27584 3296
WIRE 27760 3296 27648 3296
WIRE 28384 3296 28384 3280
WIRE 28384 3296 28320 3296
WIRE 28496 3296 28384 3296
WIRE 30816 3296 30816 3280
WIRE 30816 3296 30752 3296
WIRE 30928 3296 30816 3296
WIRE 31552 3296 31552 3280
WIRE 31552 3296 31488 3296
WIRE 31664 3296 31552 3296
WIRE 24240 3312 24240 3280
WIRE 24976 3312 24976 3280
WIRE 27760 3312 27760 3296
WIRE 28496 3312 28496 3296
WIRE 30928 3312 30928 3296
WIRE 31664 3312 31664 3296
WIRE 24416 3328 24400 3328
WIRE 25152 3328 25136 3328
WIRE 27312 3328 27312 3312
WIRE 27312 3328 27232 3328
WIRE 27440 3328 27312 3328
WIRE 28048 3328 28048 3312
WIRE 28048 3328 27968 3328
WIRE 28176 3328 28048 3328
WIRE 30480 3328 30480 3312
WIRE 30480 3328 30400 3328
WIRE 30608 3328 30480 3328
WIRE 31216 3328 31216 3312
WIRE 31216 3328 31136 3328
WIRE 31344 3328 31216 3328
WIRE 24400 3344 24400 3328
WIRE 24400 3344 24336 3344
WIRE 24512 3344 24400 3344
WIRE 25136 3344 25136 3328
WIRE 25136 3344 25072 3344
WIRE 25248 3344 25136 3344
WIRE 24512 3360 24512 3344
WIRE 25248 3360 25248 3344
WIRE 24064 3376 24064 3360
WIRE 24064 3376 23984 3376
WIRE 24192 3376 24064 3376
WIRE 24800 3376 24800 3360
WIRE 24800 3376 24720 3376
WIRE 24928 3376 24800 3376
WIRE 27712 3376 27584 3376
WIRE 28448 3376 28320 3376
WIRE 30880 3376 30752 3376
WIRE 31616 3376 31488 3376
WIRE 24464 3424 24336 3424
WIRE 25200 3424 25072 3424
WIRE 27536 3440 27488 3440
WIRE 28272 3440 28224 3440
WIRE 30704 3440 30656 3440
WIRE 31440 3440 31392 3440
WIRE 24288 3488 24240 3488
WIRE 25024 3488 24976 3488
WIRE 27840 3488 27760 3488
WIRE 28576 3488 28496 3488
WIRE 31008 3488 30928 3488
WIRE 31744 3488 31664 3488
WIRE 27488 3520 27472 3520
WIRE 28224 3520 28208 3520
WIRE 30656 3520 30640 3520
WIRE 31392 3520 31376 3520
WIRE 24592 3536 24512 3536
WIRE 25328 3536 25248 3536
WIRE 24240 3568 24224 3568
WIRE 24976 3568 24960 3568
WIRE 27280 3744 26736 3744
WIRE 28256 3744 27280 3744
WIRE 30448 3744 29904 3744
WIRE 31424 3744 30448 3744
WIRE 26752 3776 26736 3776
WIRE 27632 3776 26768 3776
WIRE 28608 3776 27744 3776
WIRE 29920 3776 29904 3776
WIRE 30800 3776 29936 3776
WIRE 31776 3776 30912 3776
WIRE 24032 3792 23488 3792
WIRE 25008 3792 24032 3792
WIRE 27488 3792 27472 3792
WIRE 28464 3792 28448 3792
WIRE 30656 3792 30640 3792
WIRE 31632 3792 31616 3792
WIRE 27472 3808 27472 3792
WIRE 27472 3808 27392 3808
WIRE 27568 3808 27472 3808
WIRE 28448 3808 28448 3792
WIRE 28448 3808 28368 3808
WIRE 28544 3808 28448 3808
WIRE 30640 3808 30640 3792
WIRE 30640 3808 30560 3808
WIRE 30736 3808 30640 3808
WIRE 31616 3808 31616 3792
WIRE 31616 3808 31536 3808
WIRE 31712 3808 31616 3808
WIRE 23504 3824 23488 3824
WIRE 24384 3824 23520 3824
WIRE 25360 3824 24496 3824
WIRE 24240 3840 24224 3840
WIRE 25216 3840 25200 3840
WIRE 27568 3840 27568 3808
WIRE 28544 3840 28544 3808
WIRE 30736 3840 30736 3808
WIRE 31712 3840 31712 3808
WIRE 24224 3856 24224 3840
WIRE 24224 3856 24144 3856
WIRE 24320 3856 24224 3856
WIRE 25200 3856 25200 3840
WIRE 25200 3856 25120 3856
WIRE 25296 3856 25200 3856
WIRE 24320 3888 24320 3856
WIRE 25296 3888 25296 3856
WIRE 27392 3904 27392 3888
WIRE 27472 3904 27392 3904
WIRE 27520 3904 27472 3904
WIRE 28368 3904 28368 3888
WIRE 28448 3904 28368 3904
WIRE 28496 3904 28448 3904
WIRE 30560 3904 30560 3888
WIRE 30640 3904 30560 3904
WIRE 30688 3904 30640 3904
WIRE 31536 3904 31536 3888
WIRE 31616 3904 31536 3904
WIRE 31664 3904 31616 3904
WIRE 27392 3920 27392 3904
WIRE 28368 3920 28368 3904
WIRE 30560 3920 30560 3904
WIRE 31536 3920 31536 3904
WIRE 24144 3952 24144 3936
WIRE 24224 3952 24144 3952
WIRE 24272 3952 24224 3952
WIRE 25120 3952 25120 3936
WIRE 25200 3952 25120 3952
WIRE 25248 3952 25200 3952
WIRE 24144 3968 24144 3952
WIRE 25120 3968 25120 3952
WIRE 27344 3984 27040 3984
WIRE 27472 3984 27472 3904
WIRE 28320 3984 28016 3984
WIRE 28448 3984 28448 3904
WIRE 30512 3984 30208 3984
WIRE 30640 3984 30640 3904
WIRE 31488 3984 31184 3984
WIRE 31616 3984 31616 3904
WIRE 27568 4016 27552 4016
WIRE 28544 4016 28528 4016
WIRE 30736 4016 30720 4016
WIRE 31712 4016 31696 4016
WIRE 24096 4032 23792 4032
WIRE 24224 4032 24224 3952
WIRE 25072 4032 24768 4032
WIRE 25200 4032 25200 3952
WIRE 27536 4048 27520 4048
WIRE 28512 4048 28496 4048
WIRE 30704 4048 30688 4048
WIRE 31680 4048 31664 4048
WIRE 24320 4064 24304 4064
WIRE 25296 4064 25280 4064
WIRE 26912 4064 26896 4064
WIRE 27888 4064 27872 4064
WIRE 30080 4064 30064 4064
WIRE 31056 4064 31040 4064
WIRE 26896 4080 26896 4064
WIRE 26896 4080 26816 4080
WIRE 26992 4080 26896 4080
WIRE 27872 4080 27872 4064
WIRE 27872 4080 27792 4080
WIRE 27968 4080 27872 4080
WIRE 30064 4080 30064 4064
WIRE 30064 4080 29984 4080
WIRE 30160 4080 30064 4080
WIRE 31040 4080 31040 4064
WIRE 31040 4080 30960 4080
WIRE 31136 4080 31040 4080
WIRE 24288 4096 24272 4096
WIRE 25264 4096 25248 4096
WIRE 27472 4096 27472 4080
WIRE 28448 4096 28448 4080
WIRE 30640 4096 30640 4080
WIRE 31616 4096 31616 4080
WIRE 23664 4112 23648 4112
WIRE 24640 4112 24624 4112
WIRE 26992 4112 26992 4080
WIRE 27568 4112 27568 4096
WIRE 27584 4112 27568 4112
WIRE 27968 4112 27968 4080
WIRE 28544 4112 28544 4096
WIRE 28560 4112 28544 4112
WIRE 30160 4112 30160 4080
WIRE 30736 4112 30736 4096
WIRE 30752 4112 30736 4112
WIRE 31136 4112 31136 4080
WIRE 31712 4112 31712 4096
WIRE 31728 4112 31712 4112
WIRE 23648 4128 23648 4112
WIRE 23648 4128 23568 4128
WIRE 23744 4128 23648 4128
WIRE 24624 4128 24624 4112
WIRE 24624 4128 24544 4128
WIRE 24720 4128 24624 4128
WIRE 27168 4128 27152 4128
WIRE 28144 4128 28128 4128
WIRE 30336 4128 30320 4128
WIRE 31312 4128 31296 4128
WIRE 24224 4144 24224 4128
WIRE 25200 4144 25200 4128
WIRE 27152 4144 27152 4128
WIRE 27152 4144 27088 4144
WIRE 27264 4144 27152 4144
WIRE 27344 4144 27344 4080
WIRE 27552 4144 27552 4016
WIRE 27632 4144 27632 3776
WIRE 27632 4144 27552 4144
WIRE 27664 4144 27632 4144
WIRE 28128 4144 28128 4128
WIRE 28128 4144 28064 4144
WIRE 28240 4144 28128 4144
WIRE 28320 4144 28320 4080
WIRE 28528 4144 28528 4016
WIRE 28608 4144 28608 3776
WIRE 28608 4144 28528 4144
WIRE 28640 4144 28608 4144
WIRE 30320 4144 30320 4128
WIRE 30320 4144 30256 4144
WIRE 30432 4144 30320 4144
WIRE 30512 4144 30512 4080
WIRE 30720 4144 30720 4016
WIRE 30800 4144 30800 3776
WIRE 30800 4144 30720 4144
WIRE 30832 4144 30800 4144
WIRE 31296 4144 31296 4128
WIRE 31296 4144 31232 4144
WIRE 31408 4144 31296 4144
WIRE 31488 4144 31488 4080
WIRE 31696 4144 31696 4016
WIRE 31776 4144 31776 3776
WIRE 31776 4144 31696 4144
WIRE 31808 4144 31776 4144
WIRE 23744 4160 23744 4128
WIRE 24320 4160 24320 4144
WIRE 24336 4160 24320 4160
WIRE 24720 4160 24720 4128
WIRE 25296 4160 25296 4144
WIRE 25312 4160 25296 4160
WIRE 27264 4160 27264 4144
WIRE 28240 4160 28240 4144
WIRE 30432 4160 30432 4144
WIRE 31408 4160 31408 4144
WIRE 23920 4176 23904 4176
WIRE 24896 4176 24880 4176
WIRE 26816 4176 26816 4160
WIRE 26896 4176 26816 4176
WIRE 26944 4176 26896 4176
WIRE 27792 4176 27792 4160
WIRE 27872 4176 27792 4176
WIRE 27920 4176 27872 4176
WIRE 29984 4176 29984 4160
WIRE 30064 4176 29984 4176
WIRE 30112 4176 30064 4176
WIRE 30960 4176 30960 4160
WIRE 31040 4176 30960 4176
WIRE 31088 4176 31040 4176
WIRE 23904 4192 23904 4176
WIRE 23904 4192 23840 4192
WIRE 24016 4192 23904 4192
WIRE 24096 4192 24096 4128
WIRE 24304 4192 24304 4064
WIRE 24384 4192 24384 3824
WIRE 24384 4192 24304 4192
WIRE 24416 4192 24384 4192
WIRE 24880 4192 24880 4176
WIRE 24880 4192 24816 4192
WIRE 24992 4192 24880 4192
WIRE 25072 4192 25072 4128
WIRE 25280 4192 25280 4064
WIRE 25360 4192 25360 3824
WIRE 25360 4192 25280 4192
WIRE 25392 4192 25360 4192
WIRE 26816 4192 26816 4176
WIRE 27584 4192 27568 4192
WIRE 27792 4192 27792 4176
WIRE 28560 4192 28544 4192
WIRE 29984 4192 29984 4176
WIRE 30752 4192 30736 4192
WIRE 30960 4192 30960 4176
WIRE 31728 4192 31712 4192
WIRE 24016 4208 24016 4192
WIRE 24992 4208 24992 4192
WIRE 27344 4208 27344 4144
WIRE 27472 4208 27472 4192
WIRE 28320 4208 28320 4144
WIRE 28448 4208 28448 4192
WIRE 30512 4208 30512 4144
WIRE 30640 4208 30640 4192
WIRE 31488 4208 31488 4144
WIRE 31616 4208 31616 4192
WIRE 23568 4224 23568 4208
WIRE 23648 4224 23568 4224
WIRE 23696 4224 23648 4224
WIRE 24544 4224 24544 4208
WIRE 24624 4224 24544 4224
WIRE 24672 4224 24624 4224
WIRE 27216 4224 27088 4224
WIRE 28192 4224 28064 4224
WIRE 30384 4224 30256 4224
WIRE 31360 4224 31232 4224
WIRE 23568 4240 23568 4224
WIRE 24336 4240 24320 4240
WIRE 24544 4240 24544 4224
WIRE 25312 4240 25296 4240
WIRE 27552 4240 27552 4144
WIRE 27552 4240 27520 4240
WIRE 28528 4240 28528 4144
WIRE 28528 4240 28496 4240
WIRE 30720 4240 30720 4144
WIRE 30720 4240 30688 4240
WIRE 31696 4240 31696 4144
WIRE 31696 4240 31664 4240
WIRE 24096 4256 24096 4192
WIRE 24224 4256 24224 4240
WIRE 25072 4256 25072 4192
WIRE 25200 4256 25200 4240
WIRE 26768 4256 26768 3776
WIRE 26896 4256 26896 4176
WIRE 27744 4256 27744 3776
WIRE 27872 4256 27872 4176
WIRE 29936 4256 29936 3776
WIRE 30064 4256 30064 4176
WIRE 30912 4256 30912 3776
WIRE 31040 4256 31040 4176
WIRE 23968 4272 23840 4272
WIRE 24944 4272 24816 4272
WIRE 27536 4272 27536 4048
WIRE 27568 4272 27536 4272
WIRE 28512 4272 28512 4048
WIRE 28544 4272 28512 4272
WIRE 30704 4272 30704 4048
WIRE 30736 4272 30704 4272
WIRE 31680 4272 31680 4048
WIRE 31712 4272 31680 4272
WIRE 24304 4288 24304 4192
WIRE 24304 4288 24272 4288
WIRE 25280 4288 25280 4192
WIRE 25280 4288 25248 4288
WIRE 27040 4288 27040 3984
WIRE 27040 4288 26992 4288
WIRE 28016 4288 28016 3984
WIRE 28016 4288 27968 4288
WIRE 30208 4288 30208 3984
WIRE 30208 4288 30160 4288
WIRE 31184 4288 31184 3984
WIRE 31184 4288 31136 4288
WIRE 23520 4304 23520 3824
WIRE 23648 4304 23648 4224
WIRE 24496 4304 24496 3824
WIRE 24624 4304 24624 4224
WIRE 27344 4304 27328 4304
WIRE 28320 4304 28304 4304
WIRE 30512 4304 30496 4304
WIRE 31488 4304 31472 4304
WIRE 24288 4320 24288 4096
WIRE 24320 4320 24288 4320
WIRE 25264 4320 25264 4096
WIRE 25296 4320 25264 4320
WIRE 26848 4320 26704 4320
WIRE 27824 4320 27680 4320
WIRE 30016 4320 29872 4320
WIRE 30992 4320 30848 4320
WIRE 23792 4336 23792 4032
WIRE 23792 4336 23744 4336
WIRE 24768 4336 24768 4032
WIRE 24768 4336 24720 4336
WIRE 27328 4336 27328 4304
WIRE 27328 4336 27264 4336
WIRE 28304 4336 28304 4304
WIRE 28304 4336 28240 4336
WIRE 30496 4336 30496 4304
WIRE 30496 4336 30432 4336
WIRE 31472 4336 31472 4304
WIRE 31472 4336 31408 4336
WIRE 24096 4352 24080 4352
WIRE 25072 4352 25056 4352
WIRE 26752 4352 26752 3776
WIRE 26768 4352 26752 4352
WIRE 27744 4352 27728 4352
WIRE 29920 4352 29920 3776
WIRE 29936 4352 29920 4352
WIRE 30912 4352 30896 4352
WIRE 23600 4368 23456 4368
WIRE 24576 4368 24432 4368
WIRE 26992 4368 26976 4368
WIRE 27968 4368 27952 4368
WIRE 30160 4368 30144 4368
WIRE 31136 4368 31120 4368
WIRE 24080 4384 24080 4352
WIRE 24080 4384 24016 4384
WIRE 25056 4384 25056 4352
WIRE 25056 4384 24992 4384
WIRE 27392 4384 27392 4368
WIRE 27472 4384 27472 4304
WIRE 27472 4384 27392 4384
WIRE 27520 4384 27472 4384
WIRE 28368 4384 28368 4368
WIRE 28448 4384 28448 4304
WIRE 28448 4384 28368 4384
WIRE 28496 4384 28448 4384
WIRE 30560 4384 30560 4368
WIRE 30640 4384 30640 4304
WIRE 30640 4384 30560 4384
WIRE 30688 4384 30640 4384
WIRE 31536 4384 31536 4368
WIRE 31616 4384 31616 4304
WIRE 31616 4384 31536 4384
WIRE 31664 4384 31616 4384
WIRE 23504 4400 23504 3824
WIRE 23520 4400 23504 4400
WIRE 24496 4400 24480 4400
WIRE 27392 4400 27392 4384
WIRE 28368 4400 28368 4384
WIRE 30560 4400 30560 4384
WIRE 31536 4400 31536 4384
WIRE 23744 4416 23728 4416
WIRE 24720 4416 24704 4416
WIRE 27280 4416 27280 3744
WIRE 27280 4416 26944 4416
WIRE 28256 4416 28256 3744
WIRE 28256 4416 27920 4416
WIRE 30448 4416 30448 3744
WIRE 30448 4416 30112 4416
WIRE 31424 4416 31424 3744
WIRE 31424 4416 31088 4416
WIRE 24144 4432 24144 4416
WIRE 24224 4432 24224 4352
WIRE 24224 4432 24144 4432
WIRE 24272 4432 24224 4432
WIRE 25120 4432 25120 4416
WIRE 25200 4432 25200 4352
WIRE 25200 4432 25120 4432
WIRE 25248 4432 25200 4432
WIRE 24144 4448 24144 4432
WIRE 25120 4448 25120 4432
WIRE 24032 4464 24032 3792
WIRE 24032 4464 23696 4464
WIRE 25008 4464 25008 3792
WIRE 25008 4464 24672 4464
WIRE 27472 4480 27392 4480
WIRE 27568 4480 27568 4448
WIRE 27568 4480 27472 4480
WIRE 28448 4480 28368 4480
WIRE 28544 4480 28544 4448
WIRE 28544 4480 28448 4480
WIRE 30640 4480 30560 4480
WIRE 30736 4480 30736 4448
WIRE 30736 4480 30640 4480
WIRE 31616 4480 31536 4480
WIRE 31712 4480 31712 4448
WIRE 31712 4480 31616 4480
WIRE 27472 4496 27472 4480
WIRE 27488 4496 27472 4496
WIRE 28448 4496 28448 4480
WIRE 28464 4496 28448 4496
WIRE 30640 4496 30640 4480
WIRE 30656 4496 30640 4496
WIRE 31616 4496 31616 4480
WIRE 31632 4496 31616 4496
WIRE 26752 4512 26752 4352
WIRE 27728 4512 27728 4352
WIRE 27728 4512 26752 4512
WIRE 29920 4512 29920 4352
WIRE 30896 4512 30896 4352
WIRE 30896 4512 29920 4512
WIRE 24224 4528 24144 4528
WIRE 24320 4528 24320 4496
WIRE 24320 4528 24224 4528
WIRE 25200 4528 25120 4528
WIRE 25296 4528 25296 4496
WIRE 25296 4528 25200 4528
WIRE 24224 4544 24224 4528
WIRE 24240 4544 24224 4544
WIRE 25200 4544 25200 4528
WIRE 25216 4544 25200 4544
WIRE 27632 4544 26768 4544
WIRE 28608 4544 27744 4544
WIRE 30800 4544 29936 4544
WIRE 31776 4544 30912 4544
WIRE 23504 4560 23504 4400
WIRE 24480 4560 24480 4400
WIRE 24480 4560 23504 4560
WIRE 27488 4560 27472 4560
WIRE 28464 4560 28448 4560
WIRE 30656 4560 30640 4560
WIRE 31632 4560 31616 4560
WIRE 27472 4576 27472 4560
WIRE 27472 4576 27392 4576
WIRE 27568 4576 27472 4576
WIRE 28448 4576 28448 4560
WIRE 28448 4576 28368 4576
WIRE 28544 4576 28448 4576
WIRE 30640 4576 30640 4560
WIRE 30640 4576 30560 4576
WIRE 30736 4576 30640 4576
WIRE 31616 4576 31616 4560
WIRE 31616 4576 31536 4576
WIRE 31712 4576 31616 4576
WIRE 24384 4592 23520 4592
WIRE 25360 4592 24496 4592
WIRE 24240 4608 24224 4608
WIRE 25216 4608 25200 4608
WIRE 27568 4608 27568 4576
WIRE 28544 4608 28544 4576
WIRE 30736 4608 30736 4576
WIRE 31712 4608 31712 4576
WIRE 24224 4624 24224 4608
WIRE 24224 4624 24144 4624
WIRE 24320 4624 24224 4624
WIRE 25200 4624 25200 4608
WIRE 25200 4624 25120 4624
WIRE 25296 4624 25200 4624
WIRE 24320 4656 24320 4624
WIRE 25296 4656 25296 4624
WIRE 27392 4672 27392 4656
WIRE 27472 4672 27392 4672
WIRE 27520 4672 27472 4672
WIRE 28368 4672 28368 4656
WIRE 28448 4672 28368 4672
WIRE 28496 4672 28448 4672
WIRE 30560 4672 30560 4656
WIRE 30640 4672 30560 4672
WIRE 30688 4672 30640 4672
WIRE 31536 4672 31536 4656
WIRE 31616 4672 31536 4672
WIRE 31664 4672 31616 4672
WIRE 27392 4688 27392 4672
WIRE 28368 4688 28368 4672
WIRE 30560 4688 30560 4672
WIRE 31536 4688 31536 4672
WIRE 24144 4720 24144 4704
WIRE 24224 4720 24144 4720
WIRE 24272 4720 24224 4720
WIRE 25120 4720 25120 4704
WIRE 25200 4720 25120 4720
WIRE 25248 4720 25200 4720
WIRE 24144 4736 24144 4720
WIRE 25120 4736 25120 4720
WIRE 27344 4752 27040 4752
WIRE 27472 4752 27472 4672
WIRE 28320 4752 28016 4752
WIRE 28448 4752 28448 4672
WIRE 30512 4752 30208 4752
WIRE 30640 4752 30640 4672
WIRE 31488 4752 31184 4752
WIRE 31616 4752 31616 4672
WIRE 27568 4784 27552 4784
WIRE 28544 4784 28528 4784
WIRE 30736 4784 30720 4784
WIRE 31712 4784 31696 4784
WIRE 24096 4800 23792 4800
WIRE 24224 4800 24224 4720
WIRE 25072 4800 24768 4800
WIRE 25200 4800 25200 4720
WIRE 27536 4816 27520 4816
WIRE 28512 4816 28496 4816
WIRE 30704 4816 30688 4816
WIRE 31680 4816 31664 4816
WIRE 24320 4832 24304 4832
WIRE 25296 4832 25280 4832
WIRE 26912 4832 26896 4832
WIRE 27888 4832 27872 4832
WIRE 30080 4832 30064 4832
WIRE 31056 4832 31040 4832
WIRE 26896 4848 26896 4832
WIRE 26896 4848 26816 4848
WIRE 26992 4848 26896 4848
WIRE 27872 4848 27872 4832
WIRE 27872 4848 27792 4848
WIRE 27968 4848 27872 4848
WIRE 30064 4848 30064 4832
WIRE 30064 4848 29984 4848
WIRE 30160 4848 30064 4848
WIRE 31040 4848 31040 4832
WIRE 31040 4848 30960 4848
WIRE 31136 4848 31040 4848
WIRE 24288 4864 24272 4864
WIRE 25264 4864 25248 4864
WIRE 27472 4864 27472 4848
WIRE 28448 4864 28448 4848
WIRE 30640 4864 30640 4848
WIRE 31616 4864 31616 4848
WIRE 23664 4880 23648 4880
WIRE 24640 4880 24624 4880
WIRE 26992 4880 26992 4848
WIRE 27568 4880 27568 4864
WIRE 27584 4880 27568 4880
WIRE 27968 4880 27968 4848
WIRE 28544 4880 28544 4864
WIRE 28560 4880 28544 4880
WIRE 30160 4880 30160 4848
WIRE 30736 4880 30736 4864
WIRE 30752 4880 30736 4880
WIRE 31136 4880 31136 4848
WIRE 31712 4880 31712 4864
WIRE 31728 4880 31712 4880
WIRE 23648 4896 23648 4880
WIRE 23648 4896 23568 4896
WIRE 23744 4896 23648 4896
WIRE 24624 4896 24624 4880
WIRE 24624 4896 24544 4896
WIRE 24720 4896 24624 4896
WIRE 27168 4896 27152 4896
WIRE 28144 4896 28128 4896
WIRE 30336 4896 30320 4896
WIRE 31312 4896 31296 4896
WIRE 24224 4912 24224 4896
WIRE 25200 4912 25200 4896
WIRE 27152 4912 27152 4896
WIRE 27152 4912 27088 4912
WIRE 27264 4912 27152 4912
WIRE 27344 4912 27344 4848
WIRE 27552 4912 27552 4784
WIRE 27632 4912 27632 4544
WIRE 27632 4912 27552 4912
WIRE 27664 4912 27632 4912
WIRE 28128 4912 28128 4896
WIRE 28128 4912 28064 4912
WIRE 28240 4912 28128 4912
WIRE 28320 4912 28320 4848
WIRE 28528 4912 28528 4784
WIRE 28608 4912 28608 4544
WIRE 28608 4912 28528 4912
WIRE 28640 4912 28608 4912
WIRE 30320 4912 30320 4896
WIRE 30320 4912 30256 4912
WIRE 30432 4912 30320 4912
WIRE 30512 4912 30512 4848
WIRE 30720 4912 30720 4784
WIRE 30800 4912 30800 4544
WIRE 30800 4912 30720 4912
WIRE 30832 4912 30800 4912
WIRE 31296 4912 31296 4896
WIRE 31296 4912 31232 4912
WIRE 31408 4912 31296 4912
WIRE 31488 4912 31488 4848
WIRE 31696 4912 31696 4784
WIRE 31776 4912 31776 4544
WIRE 31776 4912 31696 4912
WIRE 31808 4912 31776 4912
WIRE 23744 4928 23744 4896
WIRE 24320 4928 24320 4912
WIRE 24336 4928 24320 4928
WIRE 24720 4928 24720 4896
WIRE 25296 4928 25296 4912
WIRE 25312 4928 25296 4928
WIRE 27264 4928 27264 4912
WIRE 28240 4928 28240 4912
WIRE 30432 4928 30432 4912
WIRE 31408 4928 31408 4912
WIRE 23920 4944 23904 4944
WIRE 24896 4944 24880 4944
WIRE 26816 4944 26816 4928
WIRE 26896 4944 26816 4944
WIRE 26944 4944 26896 4944
WIRE 27792 4944 27792 4928
WIRE 27872 4944 27792 4944
WIRE 27920 4944 27872 4944
WIRE 29984 4944 29984 4928
WIRE 30064 4944 29984 4944
WIRE 30112 4944 30064 4944
WIRE 30960 4944 30960 4928
WIRE 31040 4944 30960 4944
WIRE 31088 4944 31040 4944
WIRE 23904 4960 23904 4944
WIRE 23904 4960 23840 4960
WIRE 24016 4960 23904 4960
WIRE 24096 4960 24096 4896
WIRE 24304 4960 24304 4832
WIRE 24384 4960 24384 4592
WIRE 24384 4960 24304 4960
WIRE 24416 4960 24384 4960
WIRE 24880 4960 24880 4944
WIRE 24880 4960 24816 4960
WIRE 24992 4960 24880 4960
WIRE 25072 4960 25072 4896
WIRE 25280 4960 25280 4832
WIRE 25360 4960 25360 4592
WIRE 25360 4960 25280 4960
WIRE 25392 4960 25360 4960
WIRE 26816 4960 26816 4944
WIRE 27584 4960 27568 4960
WIRE 27792 4960 27792 4944
WIRE 28560 4960 28544 4960
WIRE 29984 4960 29984 4944
WIRE 30752 4960 30736 4960
WIRE 30960 4960 30960 4944
WIRE 31728 4960 31712 4960
WIRE 24016 4976 24016 4960
WIRE 24992 4976 24992 4960
WIRE 27344 4976 27344 4912
WIRE 27472 4976 27472 4960
WIRE 28320 4976 28320 4912
WIRE 28448 4976 28448 4960
WIRE 30512 4976 30512 4912
WIRE 30640 4976 30640 4960
WIRE 31488 4976 31488 4912
WIRE 31616 4976 31616 4960
WIRE 23568 4992 23568 4976
WIRE 23648 4992 23568 4992
WIRE 23696 4992 23648 4992
WIRE 24544 4992 24544 4976
WIRE 24624 4992 24544 4992
WIRE 24672 4992 24624 4992
WIRE 27216 4992 27088 4992
WIRE 28192 4992 28064 4992
WIRE 30384 4992 30256 4992
WIRE 31360 4992 31232 4992
WIRE 23568 5008 23568 4992
WIRE 24336 5008 24320 5008
WIRE 24544 5008 24544 4992
WIRE 25312 5008 25296 5008
WIRE 27552 5008 27552 4912
WIRE 27552 5008 27520 5008
WIRE 28528 5008 28528 4912
WIRE 28528 5008 28496 5008
WIRE 30720 5008 30720 4912
WIRE 30720 5008 30688 5008
WIRE 31696 5008 31696 4912
WIRE 31696 5008 31664 5008
WIRE 24096 5024 24096 4960
WIRE 24224 5024 24224 5008
WIRE 25072 5024 25072 4960
WIRE 25200 5024 25200 5008
WIRE 26768 5024 26768 4544
WIRE 26896 5024 26896 4944
WIRE 27744 5024 27744 4544
WIRE 27872 5024 27872 4944
WIRE 29936 5024 29936 4544
WIRE 30064 5024 30064 4944
WIRE 30912 5024 30912 4544
WIRE 31040 5024 31040 4944
WIRE 23968 5040 23840 5040
WIRE 24944 5040 24816 5040
WIRE 27536 5040 27536 4816
WIRE 27568 5040 27536 5040
WIRE 28512 5040 28512 4816
WIRE 28544 5040 28512 5040
WIRE 30704 5040 30704 4816
WIRE 30736 5040 30704 5040
WIRE 31680 5040 31680 4816
WIRE 31712 5040 31680 5040
WIRE 24304 5056 24304 4960
WIRE 24304 5056 24272 5056
WIRE 25280 5056 25280 4960
WIRE 25280 5056 25248 5056
WIRE 27040 5056 27040 4752
WIRE 27040 5056 26992 5056
WIRE 28016 5056 28016 4752
WIRE 28016 5056 27968 5056
WIRE 30208 5056 30208 4752
WIRE 30208 5056 30160 5056
WIRE 31184 5056 31184 4752
WIRE 31184 5056 31136 5056
WIRE 23520 5072 23520 4592
WIRE 23648 5072 23648 4992
WIRE 24496 5072 24496 4592
WIRE 24624 5072 24624 4992
WIRE 27344 5072 27328 5072
WIRE 28320 5072 28304 5072
WIRE 30512 5072 30496 5072
WIRE 31488 5072 31472 5072
WIRE 24288 5088 24288 4864
WIRE 24320 5088 24288 5088
WIRE 25264 5088 25264 4864
WIRE 25296 5088 25264 5088
WIRE 26848 5088 26704 5088
WIRE 27824 5088 27680 5088
WIRE 30016 5088 29872 5088
WIRE 30992 5088 30848 5088
WIRE 23792 5104 23792 4800
WIRE 23792 5104 23744 5104
WIRE 24768 5104 24768 4800
WIRE 24768 5104 24720 5104
WIRE 27328 5104 27328 5072
WIRE 27328 5104 27264 5104
WIRE 28304 5104 28304 5072
WIRE 28304 5104 28240 5104
WIRE 30496 5104 30496 5072
WIRE 30496 5104 30432 5104
WIRE 31472 5104 31472 5072
WIRE 31472 5104 31408 5104
WIRE 24096 5120 24080 5120
WIRE 25072 5120 25056 5120
WIRE 26752 5120 26752 4512
WIRE 26768 5120 26752 5120
WIRE 27728 5120 27728 4512
WIRE 27744 5120 27728 5120
WIRE 29920 5120 29920 4512
WIRE 29936 5120 29920 5120
WIRE 30896 5120 30896 4512
WIRE 30912 5120 30896 5120
WIRE 23600 5136 23456 5136
WIRE 24576 5136 24432 5136
WIRE 26992 5136 26976 5136
WIRE 27968 5136 27952 5136
WIRE 30160 5136 30144 5136
WIRE 31136 5136 31120 5136
WIRE 24080 5152 24080 5120
WIRE 24080 5152 24016 5152
WIRE 25056 5152 25056 5120
WIRE 25056 5152 24992 5152
WIRE 27392 5152 27392 5136
WIRE 27472 5152 27472 5072
WIRE 27472 5152 27392 5152
WIRE 27520 5152 27472 5152
WIRE 28368 5152 28368 5136
WIRE 28448 5152 28448 5072
WIRE 28448 5152 28368 5152
WIRE 28496 5152 28448 5152
WIRE 30560 5152 30560 5136
WIRE 30640 5152 30640 5072
WIRE 30640 5152 30560 5152
WIRE 30688 5152 30640 5152
WIRE 31536 5152 31536 5136
WIRE 31616 5152 31616 5072
WIRE 31616 5152 31536 5152
WIRE 31664 5152 31616 5152
WIRE 23504 5168 23504 4560
WIRE 23520 5168 23504 5168
WIRE 24480 5168 24480 4560
WIRE 24496 5168 24480 5168
WIRE 27392 5168 27392 5152
WIRE 28368 5168 28368 5152
WIRE 30560 5168 30560 5152
WIRE 31536 5168 31536 5152
WIRE 23744 5184 23728 5184
WIRE 24720 5184 24704 5184
WIRE 27280 5184 27280 4416
WIRE 27280 5184 26944 5184
WIRE 28256 5184 28256 4416
WIRE 28256 5184 27920 5184
WIRE 30448 5184 30448 4416
WIRE 30448 5184 30112 5184
WIRE 31424 5184 31424 4416
WIRE 31424 5184 31088 5184
WIRE 24144 5200 24144 5184
WIRE 24224 5200 24224 5120
WIRE 24224 5200 24144 5200
WIRE 24272 5200 24224 5200
WIRE 25120 5200 25120 5184
WIRE 25200 5200 25200 5120
WIRE 25200 5200 25120 5200
WIRE 25248 5200 25200 5200
WIRE 24144 5216 24144 5200
WIRE 25120 5216 25120 5200
WIRE 24032 5232 24032 4464
WIRE 24032 5232 23696 5232
WIRE 25008 5232 25008 4464
WIRE 25008 5232 24672 5232
WIRE 27472 5248 27392 5248
WIRE 27568 5248 27568 5216
WIRE 27568 5248 27472 5248
WIRE 28448 5248 28368 5248
WIRE 28544 5248 28544 5216
WIRE 28544 5248 28448 5248
WIRE 30640 5248 30560 5248
WIRE 30736 5248 30736 5216
WIRE 30736 5248 30640 5248
WIRE 31616 5248 31536 5248
WIRE 31712 5248 31712 5216
WIRE 31712 5248 31616 5248
WIRE 27472 5264 27472 5248
WIRE 27488 5264 27472 5264
WIRE 28448 5264 28448 5248
WIRE 28464 5264 28448 5264
WIRE 30640 5264 30640 5248
WIRE 30656 5264 30640 5264
WIRE 31616 5264 31616 5248
WIRE 31632 5264 31616 5264
WIRE 24224 5296 24144 5296
WIRE 24320 5296 24320 5264
WIRE 24320 5296 24224 5296
WIRE 25200 5296 25120 5296
WIRE 25296 5296 25296 5264
WIRE 25296 5296 25200 5296
WIRE 24224 5312 24224 5296
WIRE 24240 5312 24224 5312
WIRE 25200 5312 25200 5296
WIRE 25216 5312 25200 5312
FLAG 24240 3840 VDD
FLAG 24240 4544 VDD
FLAG 24336 4240 VSS
FLAG 24144 4224 0
FLAG 24144 4160 0
FLAG 24224 4144 0
FLAG 24224 4240 0
FLAG 24336 4160 VSS
FLAG 24096 4192 CLK
FLAG 23648 4496 0
FLAG 23568 4432 0
FLAG 23840 4368 0
FLAG 23664 4112 VDD
FLAG 23920 4176 VDD
FLAG 23728 4416 VSS
FLAG 23936 4384 VSS
FLAG 25216 3840 VDD
FLAG 25216 4544 VDD
FLAG 25312 4240 VSS
FLAG 25120 4224 0
FLAG 25120 4160 0
FLAG 25200 4144 0
FLAG 25200 4240 0
FLAG 25312 4160 VSS
FLAG 25072 4192 CLK
FLAG 24624 4496 0
FLAG 24544 4432 0
FLAG 24816 4368 0
FLAG 24640 4112 VDD
FLAG 24896 4176 VDD
FLAG 24704 4416 VSS
FLAG 24912 4384 VSS
FLAG 24240 4608 VDD
FLAG 24240 5312 VDD
FLAG 24336 5008 VSS
FLAG 24144 4992 0
FLAG 24144 4928 0
FLAG 24224 4912 0
FLAG 24224 5008 0
FLAG 24336 4928 VSS
FLAG 24096 4960 CLK
FLAG 23648 5264 0
FLAG 23568 5200 0
FLAG 23840 5136 0
FLAG 23664 4880 VDD
FLAG 23920 4944 VDD
FLAG 23728 5184 VSS
FLAG 23936 5152 VSS
FLAG 25216 4608 VDD
FLAG 25216 5312 VDD
FLAG 25312 5008 VSS
FLAG 25120 4992 0
FLAG 25120 4928 0
FLAG 25200 4912 0
FLAG 25200 5008 0
FLAG 25312 4928 VSS
FLAG 25072 4960 CLK
FLAG 24624 5264 0
FLAG 24544 5200 0
FLAG 24816 5136 0
FLAG 24640 4880 VDD
FLAG 24896 4944 VDD
FLAG 24704 5184 VSS
FLAG 24912 5152 VSS
FLAG 23488 3792 Level1_Load
FLAG 23488 3824 !Level1_Load
FLAG 23456 4368 PC13
FLAG 24432 4368 PC12
FLAG 24432 5136 PC10
FLAG 23456 5136 PC11
FLAG 24416 4192 S113
FLAG 25392 4192 S112
FLAG 24416 4960 S111
FLAG 25392 4960 S110
FLAG 27488 3792 VDD
FLAG 27488 4496 VDD
FLAG 27584 4192 VSS
FLAG 27392 4176 0
FLAG 27392 4112 0
FLAG 27472 4096 0
FLAG 27472 4192 0
FLAG 27584 4112 VSS
FLAG 27344 4144 CLK
FLAG 26896 4448 0
FLAG 26816 4384 0
FLAG 27088 4320 0
FLAG 26912 4064 VDD
FLAG 27168 4128 VDD
FLAG 26976 4368 VSS
FLAG 27184 4336 VSS
FLAG 28464 3792 VDD
FLAG 28464 4496 VDD
FLAG 28560 4192 VSS
FLAG 28368 4176 0
FLAG 28368 4112 0
FLAG 28448 4096 0
FLAG 28448 4192 0
FLAG 28560 4112 VSS
FLAG 28320 4144 CLK
FLAG 27872 4448 0
FLAG 27792 4384 0
FLAG 28064 4320 0
FLAG 27888 4064 VDD
FLAG 28144 4128 VDD
FLAG 27952 4368 VSS
FLAG 28160 4336 VSS
FLAG 27488 4560 VDD
FLAG 27488 5264 VDD
FLAG 27584 4960 VSS
FLAG 27392 4944 0
FLAG 27392 4880 0
FLAG 27472 4864 0
FLAG 27472 4960 0
FLAG 27584 4880 VSS
FLAG 27344 4912 CLK
FLAG 26896 5216 0
FLAG 26816 5152 0
FLAG 27088 5088 0
FLAG 26912 4832 VDD
FLAG 27168 4896 VDD