Version 4.1
SHEET 1 109444 42780
WIRE -5792 -512 -5856 -512
WIRE -5792 -480 -5792 -512
WIRE -5856 -416 -5856 -432
WIRE -5840 -416 -5856 -416
WIRE -5728 -304 -5792 -304
WIRE -5792 -224 -5808 -224
FLAG -5792 -224 VSS
FLAG -5856 -224 0
FLAG -5904 -352 Acc_Q0
FLAG -5904 -256 Temp_Q0
FLAG -5728 -304 n1
FLAG -5792 -512 VDD
SYMBOL res -5872 -528 R0
WINDOW 0 -35 57 Invisible 2
WINDOW 3 34 56 Invisible 2
SYMATTR InstName R1
SYMATTR Value 100k
SYMBOL njf -5840 -480 R0
WINDOW 0 56 32 Invisible 2
WINDOW 3 56 72 Invisible 2
SYMATTR InstName J_F1
SYMATTR Value DR
SYMBOL res -5808 -400 R0
WINDOW 0 -24 60 Invisible 2
WINDOW 3 34 58 Invisible 2
SYMATTR InstName R2
SYMATTR Value 1k
SYMBOL res -5808 -320 R0
WINDOW 0 -22 62 Invisible 2
WINDOW 3 37 62 Invisible 2
SYMATTR InstName R3
SYMATTR Value 4.8k
SYMBOL njf -5904 -416 R0
WINDOW 0 56 32 Invisible 2
WINDOW 3 56 72 Invisible 2
SYMATTR InstName J_B1
SYMATTR Value DR
SYMBOL njf -5904 -320 R0
WINDOW 0 56 32 Invisible 2
WINDOW 3 56 72 Invisible 2
SYMATTR InstName J_A1
SYMATTR Value DR
WIRE -5292 -512 -5356 -512
WIRE -5292 -480 -5292 -512
WIRE -5356 -416 -5356 -432
WIRE -5340 -416 -5356 -416
WIRE -5228 -304 -5292 -304
WIRE -5292 -224 -5308 -224
FLAG -5292 -224 VSS
FLAG -5356 -224 0
FLAG -5404 -352 Acc_Q0
FLAG -5404 -256 n1
FLAG -5228 -304 n2
FLAG -5292 -512 VDD
SYMBOL res -5372 -528 R0
WINDOW 0 -35 57 Invisible 2
WINDOW 3 34 56 Invisible 2
SYMATTR InstName R4
SYMATTR Value 100k
SYMBOL njf -5340 -480 R0
WINDOW 0 56 32 Invisible 2
WINDOW 3 56 72 Invisible 2
SYMATTR InstName J_F2
SYMATTR Value DR
SYMBOL res -5308 -400 R0
WINDOW 0 -24 60 Invisible 2
WINDOW 3 34 58 Invisible 2
SYMATTR InstName R5
SYMATTR Value 1k
SYMBOL res -5308 -320 R0
WINDOW 0 -22 62 Invisible 2
WINDOW 3 37 62 Invisible 2
SYMATTR InstName R6
SYMATTR Value 4.8k
SYMBOL njf -5404 -416 R0
WINDOW 0 56 32 Invisible 2
WINDOW 3 56 72 Invisible 2
SYMATTR InstName J_B2
SYMATTR Value DR
SYMBOL njf -5404 -320 R0
WINDOW 0 56 32 Invisible 2
WINDOW 3 56 72 Invisible 2
SYMATTR InstName J_A2
SYMATTR Value DR
WIRE -4792 -512 -4856 -512
WIRE -4792 -480 -4792 -512
WIRE -4856 -416 -4856 -432
WIRE -4840 -416 -4856 -416
WIRE -4728 -304 -4792 -304
WIRE -4792 -224 -4808 -224
FLAG -4792 -224 VSS
FLAG -4856 -224 0
FLAG -4904 -352 Temp_Q0
FLAG -4904 -256 n1
FLAG -4728 -304 n3
FLAG -4792 -512 VDD
SYMBOL res -4872 -528 R0
WINDOW 0 -35 57 Invisible 2
WINDOW 3 34 56 Invisible 2
SYMATTR InstName R7
SYMATTR Value 100k
SYMBOL njf -4840 -480 R0
WINDOW 0 56 32 Invisible 2
WINDOW 3 56 72 Invisible 2
SYMATTR InstName J_F3
SYMATTR Value DR
SYMBOL res -4808 -400 R0
WINDOW 0 -24 60 Invisible 2
WINDOW 3 34 58 Invisible 2
SYMATTR InstName R8
SYMATTR Value 1k
SYMBOL res -4808 -320 R0
WINDOW 0 -22 62 Invisible 2
WINDOW 3 37 62 Invisible 2
SYMATTR InstName R9
SYMATTR Value 4.8k
SYMBOL njf -4904 -416 R0
WINDOW 0 56 32 Invisible 2
WINDOW 3 56 72 Invisible 2
SYMATTR InstName J_B3
SYMATTR Value DR
SYMBOL njf -4904 -320 R0
WINDOW 0 56 32 Invisible 2
WINDOW 3 56 72 Invisible 2
SYMATTR InstName J_A3
SYMATTR Value DR
WIRE -4292 -512 -4356 -512
WIRE -4292 -480 -4292 -512
WIRE -4356 -416 -4356 -432
WIRE -4340 -416 -4356 -416
WIRE -4228 -304 -4292 -304
WIRE -4292 -224 -4308 -224
FLAG -4292 -224 VSS
FLAG -4356 -224 0
FLAG -4404 -352 n2
FLAG -4404 -256 n3
FLAG -4228 -304 n4
FLAG -4292 -512 VDD
SYMBOL res -4372 -528 R0
WINDOW 0 -35 57 Invisible 2
WINDOW 3 34 56 Invisible 2
SYMATTR InstName R10
SYMATTR Value 100k
SYMBOL njf -4340 -480 R0
WINDOW 0 56 32 Invisible 2
WINDOW 3 56 72 Invisible 2
SYMATTR InstName J_F4
SYMATTR Value DR
SYMBOL res -4308 -400 R0
WINDOW 0 -24 60 Invisible 2
WINDOW 3 34 58 Invisible 2
SYMATTR InstName R11
SYMATTR Value 1k
SYMBOL res -4308 -320 R0
WINDOW 0 -22 62 Invisible 2
WINDOW 3 37 62 Invisible 2
SYMATTR InstName R12
SYMATTR Value 4.8k
SYMBOL njf -4404 -416 R0
WINDOW 0 56 32 Invisible 2
WINDOW 3 56 72 Invisible 2
SYMATTR InstName J_B4
SYMATTR Value DR
SYMBOL njf -4404 -320 R0
WINDOW 0 56 32 Invisible 2
WINDOW 3 56 72 Invisible 2
SYMATTR InstName J_A4
SYMATTR Value DR
WIRE -3792 -512 -3856 -512
WIRE -3792 -480 -3792 -512
WIRE -3856 -416 -3856 -432
WIRE -3840 -416 -3856 -416
WIRE -3728 -304 -3792 -304
WIRE -3792 -224 -3808 -224
FLAG -3792 -224 VSS
FLAG -3856 -224 0
FLAG -3904 -352 Acc_Q0
FLAG -3904 -256 Temp_Q0
FLAG -3728 -304 n5
FLAG -3792 -512 VDD
SYMBOL res -3872 -528 R0
WINDOW 0 -35 57 Invisible 2
WINDOW 3 34 56 Invisible 2
SYMATTR InstName R13
SYMATTR Value 100k
SYMBOL njf -3840 -480 R0
WINDOW 0 56 32 Invisible 2
WINDOW 3 56 72 Invisible 2
SYMATTR InstName J_F5
SYMATTR Value DR
SYMBOL res -3808 -400 R0
WINDOW 0 -24 60 Invisible 2
WINDOW 3 34 58 Invisible 2
SYMATTR InstName R14
SYMATTR Value 1k
SYMBOL res -3808 -320 R0
WINDOW 0 -22 62 Invisible 2
WINDOW 3 37 62 Invisible 2
SYMATTR InstName R15
SYMATTR Value 4.8k
SYMBOL njf -3904 -416 R0
WINDOW 0 56 32 Invisible 2
WINDOW 3 56 72 Invisible 2
SYMATTR InstName J_B5
SYMATTR Value DR
SYMBOL njf -3904 -320 R0
WINDOW 0 56 32 Invisible 2
WINDOW 3 56 72 Invisible 2
SYMATTR InstName J_A5
SYMATTR Value DR
WIRE -3292 -512 -3356 -512
WIRE -3292 -480 -3292 -512
WIRE -3356 -416 -3356 -432
WIRE -3340 -416 -3356 -416
WIRE -3228 -304 -3292 -304
WIRE -3292 -224 -3308 -224
FLAG -3292 -224 VSS
FLAG -3404 -352 n5
FLAG -3228 -304 n6
FLAG -3356 -320 0
FLAG -3292 -512 VDD
SYMBOL res -3372 -528 R0
WINDOW 0 -35 57 Invisible 2
WINDOW 3 34 56 Invisible 2
SYMATTR InstName R16
SYMATTR Value 100k
SYMBOL njf -3340 -480 R0
WINDOW 0 56 32 Invisible 2
WINDOW 3 56 72 Invisible 2
SYMATTR InstName J_F6
SYMATTR Value DR
SYMBOL res -3308 -400 R0
WINDOW 0 -24 60 Invisible 2
WINDOW 3 34 58 Invisible 2
SYMATTR InstName R17
SYMATTR Value 1k
SYMBOL res -3308 -320 R0
WINDOW 0 -22 62 Invisible 2
WINDOW 3 37 62 Invisible 2
SYMATTR InstName R18
SYMATTR Value 4.8k
SYMBOL njf -3404 -416 R0
WINDOW 0 56 32 Invisible 2
WINDOW 3 56 72 Invisible 2
SYMATTR InstName J_B6
SYMATTR Value DR
WIRE -2792 -512 -2856 -512
WIRE -2792 -480 -2792 -512
WIRE -2856 -416 -2856 -432
WIRE -2840 -416 -2856 -416
WIRE -2728 -304 -2792 -304
WIRE -2792 -224 -2808 -224
FLAG -2792 -224 VSS
FLAG -2856 -224 0
FLAG -2904 -352 Acc_Q1
FLAG -2904 -256 Temp_Q1
FLAG -2728 -304 n7
FLAG -2792 -512 VDD
SYMBOL res -2872 -528 R0
WINDOW 0 -35 57 Invisible 2
WINDOW 3 34 56 Invisible 2
SYMATTR InstName R19
SYMATTR Value 100k
SYMBOL njf -2840 -480 R0
WINDOW 0 56 32 Invisible 2
WINDOW 3 56 72 Invisible 2
SYMATTR InstName J_F7
SYMATTR Value DR
SYMBOL res -2808 -400 R0
WINDOW 0 -24 60 Invisible 2
WINDOW 3 34 58 Invisible 2
SYMATTR InstName R20
SYMATTR Value 1k
SYMBOL res -2808 -320 R0
WINDOW 0 -22 62 Invisible 2
WINDOW 3 37 62 Invisible 2
SYMATTR InstName R21
SYMATTR Value 4.8k
SYMBOL njf -2904 -416 R0
WINDOW 0 56 32 Invisible 2
WINDOW 3 56 72 Invisible 2
SYMATTR InstName J_B7
SYMATTR Value DR
SYMBOL njf -2904 -320 R0
WINDOW 0 56 32 Invisible 2
WINDOW 3 56 72 Invisible 2
SYMATTR InstName J_A6
SYMATTR Value DR
WIRE -2292 -512 -2356 -512
WIRE -2292 -480 -2292 -512
WIRE -2356 -416 -2356 -432
WIRE -2340 -416 -2356 -416
WIRE -2228 -304 -2292 -304
WIRE -2292 -224 -2308 -224
FLAG -2292 -224 VSS
FLAG -2356 -224 0
FLAG -2404 -352 Acc_Q1
FLAG -2404 -256 n7
FLAG -2228 -304 n8
FLAG -2292 -512 VDD
SYMBOL res -2372 -528 R0
WINDOW 0 -35 57 Invisible 2
WINDOW 3 34 56 Invisible 2
SYMATTR InstName R22
SYMATTR Value 100k
SYMBOL njf -2340 -480 R0
WINDOW 0 56 32 Invisible 2
WINDOW 3 56 72 Invisible 2
SYMATTR InstName J_F8
SYMATTR Value DR
SYMBOL res -2308 -400 R0
WINDOW 0 -24 60 Invisible 2
WINDOW 3 34 58 Invisible 2
SYMATTR InstName R23
SYMATTR Value 1k
SYMBOL res -2308 -320 R0
WINDOW 0 -22 62 Invisible 2
WINDOW 3 37 62 Invisible 2
SYMATTR InstName R24
SYMATTR Value 4.8k
SYMBOL njf -2404 -416 R0
WINDOW 0 56 32 Invisible 2
WINDOW 3 56 72 Invisible 2
SYMATTR InstName J_B8
SYMATTR Value DR
SYMBOL njf -2404 -320 R0
WINDOW 0 56 32 Invisible 2
WINDOW 3 56 72 Invisible 2
SYMATTR InstName J_A7
SYMATTR Value DR
WIRE -1792 -512 -1856 -512
WIRE -1792 -480 -1792 -512
WIRE -1856 -416 -1856 -432
WIRE -1840 -416 -1856 -416
WIRE -1728 -304 -1792 -304
WIRE -1792 -224 -1808 -224
FLAG -1792 -224 VSS
FLAG -1856 -224 0
FLAG -1904 -352 Temp_Q1
FLAG -1904 -256 n7
FLAG -1728 -304 n9
FLAG -1792 -512 VDD
SYMBOL res -1872 -528 R0
WINDOW 0 -35 57 Invisible 2
WINDOW 3 34 56 Invisible 2
SYMATTR InstName R25
SYMATTR Value 100k
SYMBOL njf -1840 -480 R0
WINDOW 0 56 32 Invisible 2
WINDOW 3 56 72 Invisible 2
SYMATTR InstName J_F9
SYMATTR Value DR
SYMBOL res -1808 -400 R0
WINDOW 0 -24 60 Invisible 2
WINDOW 3 34 58 Invisible 2
SYMATTR InstName R26
SYMATTR Value 1k
SYMBOL res -1808 -320 R0
WINDOW 0 -22 62 Invisible 2
WINDOW 3 37 62 Invisible 2
SYMATTR InstName R27
SYMATTR Value 4.8k
SYMBOL njf -1904 -416 R0
WINDOW 0 56 32 Invisible 2
WINDOW 3 56 72 Invisible 2
SYMATTR InstName J_B9
SYMATTR Value DR
SYMBOL njf -1904 -320 R0
WINDOW 0 56 32 Invisible 2
WINDOW 3 56 72 Invisible 2
SYMATTR InstName J_A8
SYMATTR Value DR
WIRE -1292 -512 -1356 -512
WIRE -1292 -480 -1292 -512
WIRE -1356 -416 -1356 -432
WIRE -1340 -416 -1356 -416
WIRE -1228 -304 -1292 -304
WIRE -1292 -224 -1308 -224
FLAG -1292 -224 VSS
FLAG -1356 -224 0
FLAG -1404 -352 n8
FLAG -1404 -256 n9
FLAG -1228 -304 n10
FLAG -1292 -512 VDD
SYMBOL res -1372 -528 R0
WINDOW 0 -35 57 Invisible 2
WINDOW 3 34 56 Invisible 2
SYMATTR InstName R28
SYMATTR Value 100k
SYMBOL njf -1340 -480 R0
WINDOW 0 56 32 Invisible 2
WINDOW 3 56 72 Invisible 2
SYMATTR InstName J_F10
SYMATTR Value DR
SYMBOL res -1308 -400 R0
WINDOW 0 -24 60 Invisible 2
WINDOW 3 34 58 Invisible 2
SYMATTR InstName R29
SYMATTR Value 1k
SYMBOL res -1308 -320 R0
WINDOW 0 -22 62 Invisible 2
WINDOW 3 37 62 Invisible 2
SYMATTR InstName R30
SYMATTR Value 4.8k
SYMBOL njf -1404 -416 R0
WINDOW 0 56 32 Invisible 2
WINDOW 3 56 72 Invisible 2
SYMATTR InstName J_B10
SYMATTR Value DR
SYMBOL njf -1404 -320 R0
WINDOW 0 56 32 Invisible 2
WINDOW 3 56 72 Invisible 2
SYMATTR InstName J_A9
SYMATTR Value DR
WIRE -792 -512 -856 -512
WIRE -792 -480 -792 -512
WIRE -856 -416 -856 -432
WIRE -840 -416 -856 -416
WIRE -728 -304 -792 -304
WIRE -792 -224 -808 -224
FLAG -792 -224 VSS
FLAG -856 -224 0
FLAG -904 -352 Acc_Q1
FLAG -904 -256 Temp_Q1
FLAG -728 -304 n11
FLAG -792 -512 VDD
SYMBOL res -872 -528 R0
WINDOW 0 -35 57 Invisible 2
WINDOW 3 34 56 Invisible 2
SYMATTR InstName R31
SYMATTR Value 100k
SYMBOL njf -840 -480 R0
WINDOW 0 56 32 Invisible 2
WINDOW 3 56 72 Invisible 2
SYMATTR InstName J_F11
SYMATTR Value DR
SYMBOL res -808 -400 R0
WINDOW 0 -24 60 Invisible 2
WINDOW 3 34 58 Invisible 2
SYMATTR InstName R32
SYMATTR Value 1k
SYMBOL res -808 -320 R0
WINDOW 0 -22 62 Invisible 2
WINDOW 3 37 62 Invisible 2
SYMATTR InstName R33
SYMATTR Value 4.8k
SYMBOL njf -904 -416 R0
WINDOW 0 56 32 Invisible 2
WINDOW 3 56 72 Invisible 2
SYMATTR InstName J_B11
SYMATTR Value DR
SYMBOL njf -904 -320 R0
WINDOW 0 56 32 Invisible 2
WINDOW 3 56 72 Invisible 2
SYMATTR InstName J_A10
SYMATTR Value DR
WIRE -292 -512 -356 -512
WIRE -292 -480 -292 -512
WIRE -356 -416 -356 -432
WIRE -340 -416 -356 -416
WIRE -228 -304 -292 -304
WIRE -292 -224 -308 -224
FLAG -292 -224 VSS
FLAG -404 -352 n11
FLAG -228 -304 n12
FLAG -356 -320 0
FLAG -292 -512 VDD
SYMBOL res -372 -528 R0
WINDOW 0 -35 57 Invisible 2
WINDOW 3 34 56 Invisible 2
SYMATTR InstName R34
SYMATTR Value 100k
SYMBOL njf -340 -480 R0
WINDOW 0 56 32 Invisible 2
WINDOW 3 56 72 Invisible 2
SYMATTR InstName J_F12
SYMATTR Value DR
SYMBOL res -308 -400 R0
WINDOW 0 -24 60 Invisible 2
WINDOW 3 34 58 Invisible 2
SYMATTR InstName R35
SYMATTR Value 1k
SYMBOL res -308 -320 R0
WINDOW 0 -22 62 Invisible 2
WINDOW 3 37 62 Invisible 2
SYMATTR InstName R36
SYMATTR Value 4.8k
SYMBOL njf -404 -416 R0
WINDOW 0 56 32 Invisible 2
WINDOW 3 56 72 Invisible 2
SYMATTR InstName J_B12
SYMATTR Value DR
WIRE -5792 88 -5856 88
WIRE -5792 120 -5792 88
WIRE -5856 184 -5856 168
WIRE -5840 184 -5856 184
WIRE -5728 296 -5792 296
WIRE -5792 376 -5808 376
FLAG -5792 376 VSS
FLAG -5856 376 0
FLAG -5904 248 Acc_Q2
FLAG -5904 344 Temp_Q2
FLAG -5728 296 n13
FLAG -5792 88 VDD
SYMBOL res -5872 72 R0
WINDOW 0 -35 57 Invisible 2
WINDOW 3 34 56 Invisible 2
SYMATTR InstName R37
SYMATTR Value 100k
SYMBOL njf -5840 120 R0
WINDOW 0 56 32 Invisible 2
WINDOW 3 56 72 Invisible 2
SYMATTR InstName J_F13
SYMATTR Value DR
SYMBOL res -5808 200 R0
WINDOW 0 -24 60 Invisible 2
WINDOW 3 34 58 Invisible 2
SYMATTR InstName R38
SYMATTR Value 1k
SYMBOL res -5808 280 R0
WINDOW 0 -22 62 Invisible 2
WINDOW 3 37 62 Invisible 2
SYMATTR InstName R39
SYMATTR Value 4.8k
SYMBOL njf -5904 184 R0
WINDOW 0 56 32 Invisible 2
WINDOW 3 56 72 Invisible 2
SYMATTR InstName J_B13
SYMATTR Value DR
SYMBOL njf -5904 280 R0
WINDOW 0 56 32 Invisible 2
WINDOW 3 56 72 Invisible 2
SYMATTR InstName J_A11
SYMATTR Value DR
WIRE -5292 88 -5356 88
WIRE -5292 120 -5292 88
WIRE -5356 184 -5356 168
WIRE -5340 184 -5356 184
WIRE -5228 296 -5292 296
WIRE -5292 376 -5308 376
FLAG -5292 376 VSS
FLAG -5356 376 0
FLAG -5404 248 Acc_Q2
FLAG -5404 344 n13
FLAG -5228 296 n14
FLAG -5292 88 VDD
SYMBOL res -5372 72 R0
WINDOW 0 -35 57 Invisible 2
WINDOW 3 34 56 Invisible 2
SYMATTR InstName R40
SYMATTR Value 100k
SYMBOL njf -5340 120 R0
WINDOW 0 56 32 Invisible 2
WINDOW 3 56 72 Invisible 2
SYMATTR InstName J_F14
SYMATTR Value DR
SYMBOL res -5308 200 R0
WINDOW 0 -24 60 Invisible 2
WINDOW 3 34 58 Invisible 2
SYMATTR InstName R41
SYMATTR Value 1k
SYMBOL res -5308 280 R0
WINDOW 0 -22 62 Invisible 2
WINDOW 3 37 62 Invisible 2
SYMATTR InstName R42
SYMATTR Value 4.8k
SYMBOL njf -5404 184 R0
WINDOW 0 56 32 Invisible 2
WINDOW 3 56 72 Invisible 2
SYMATTR InstName J_B14
SYMATTR Value DR
SYMBOL njf -5404 280 R0
WINDOW 0 56 32 Invisible 2
WINDOW 3 56 72 Invisible 2
SYMATTR InstName J_A12
SYMATTR Value DR
WIRE -4792 88 -4856 88
WIRE -4792 120 -4792 88
WIRE -4856 184 -4856 168
WIRE -4840 184 -4856 184
WIRE -4728 296 -4792 296
WIRE -4792 376 -4808 376
FLAG -4792 376 VSS
FLAG -4856 376 0
FLAG -4904 248 Temp_Q2
FLAG -4904 344 n13
FLAG -4728 296 n15
FLAG -4792 88 VDD
SYMBOL res -4872 72 R0
WINDOW 0 -35 57 Invisible 2
WINDOW 3 34 56 Invisible 2
SYMATTR InstName R43
SYMATTR Value 100k
SYMBOL njf -4840 120 R0
WINDOW 0 56 32 Invisible 2
WINDOW 3 56 72 Invisible 2
SYMATTR InstName J_F15
SYMATTR Value DR
SYMBOL res -4808 200 R0
WINDOW 0 -24 60 Invisible 2
WINDOW 3 34 58 Invisible 2
SYMATTR InstName R44
SYMATTR Value 1k
SYMBOL res -4808 280 R0
WINDOW 0 -22 62 Invisible 2
WINDOW 3 37 62 Invisible 2
SYMATTR InstName R45
SYMATTR Value 4.8k
SYMBOL njf -4904 184 R0
WINDOW 0 56 32 Invisible 2
WINDOW 3 56 72 Invisible 2
SYMATTR InstName J_B15
SYMATTR Value DR
SYMBOL njf -4904 280 R0
WINDOW 0 56 32 Invisible 2
WINDOW 3 56 72 Invisible 2
SYMATTR InstName J_A13
SYMATTR Value DR
WIRE -4292 88 -4356 88
WIRE -4292 120 -4292 88
WIRE -4356 184 -4356 168
WIRE -4340 184 -4356 184
WIRE -4228 296 -4292 296
WIRE -4292 376 -4308 376
FLAG -4292 376 VSS
FLAG -4356 376 0
FLAG -4404 248 n14
FLAG -4404 344 n15
FLAG -4228 296 n16
FLAG -4292 88 VDD
SYMBOL res -4372 72 R0
WINDOW 0 -35 57 Invisible 2
WINDOW 3 34 56 Invisible 2
SYMATTR InstName R46
SYMATTR Value 100k
SYMBOL njf -4340 120 R0
WINDOW 0 56 32 Invisible 2
WINDOW 3 56 72 Invisible 2
SYMATTR InstName J_F16
SYMATTR Value DR
SYMBOL res -4308 200 R0
WINDOW 0 -24 60 Invisible 2
WINDOW 3 34 58 Invisible 2
SYMATTR InstName R47
SYMATTR Value 1k
SYMBOL res -4308 280 R0
WINDOW 0 -22 62 Invisible 2
WINDOW 3 37 62 Invisible 2
SYMATTR InstName R48
SYMATTR Value 4.8k
SYMBOL njf -4404 184 R0
WINDOW 0 56 32 Invisible 2
WINDOW 3 56 72 Invisible 2
SYMATTR InstName J_B16
SYMATTR Value DR
SYMBOL njf -4404 280 R0
WINDOW 0 56 32 Invisible 2
WINDOW 3 56 72 Invisible 2
SYMATTR InstName J_A14
SYMATTR Value DR
WIRE -3792 88 -3856 88
WIRE -3792 120 -3792 88
WIRE -3856 184 -3856 168
WIRE -3840 184 -3856 184
WIRE -3728 296 -3792 296
WIRE -3792 376 -3808 376
FLAG -3792 376 VSS
FLAG -3856 376 0
FLAG -3904 248 Acc_Q2
FLAG -3904 344 Temp_Q2
FLAG -3728 296 n17
FLAG -3792 88 VDD
SYMBOL res -3872 72 R0
WINDOW 0 -35 57 Invisible 2
WINDOW 3 34 56 Invisible 2
SYMATTR InstName R49
SYMATTR Value 100k
SYMBOL njf -3840 120 R0
WINDOW 0 56 32 Invisible 2
WINDOW 3 56 72 Invisible 2
SYMATTR InstName J_F17
SYMATTR Value DR
SYMBOL res -3808 200 R0
WINDOW 0 -24 60 Invisible 2
WINDOW 3 34 58 Invisible 2
SYMATTR InstName R50
SYMATTR Value 1k
SYMBOL res -3808 280 R0
WINDOW 0 -22 62 Invisible 2
WINDOW 3 37 62 Invisible 2
SYMATTR InstName R51
SYMATTR Value 4.8k
SYMBOL njf -3904 184 R0
WINDOW 0 56 32 Invisible 2
WINDOW 3 56 72 Invisible 2
SYMATTR InstName J_B17
SYMATTR Value DR
SYMBOL njf -3904 280 R0
WINDOW 0 56 32 Invisible 2
WINDOW 3 56 72 Invisible 2
SYMATTR InstName J_A15
SYMATTR Value DR
WIRE -3292 88 -3356 88
WIRE -3292 120 -3292 88
WIRE -3356 184 -3356 168
WIRE -3340 184 -3356 184
WIRE -3228 296 -3292 296
WIRE -3292 376 -3308 376
FLAG -3292 376 VSS
FLAG -3404 248 n17
FLAG -3228 296 n18
FLAG -3356 280 0
FLAG -3292 88 VDD
SYMBOL res -3372 72 R0
WINDOW 0 -35 57 Invisible 2
WINDOW 3 34 56 Invisible 2
SYMATTR InstName R52
SYMATTR Value 100k
SYMBOL njf -3340 120 R0
WINDOW 0 56 32 Invisible 2
WINDOW 3 56 72 Invisible 2
SYMATTR InstName J_F18
SYMATTR Value DR
SYMBOL res -3308 200 R0
WINDOW 0 -24 60 Invisible 2
WINDOW 3 34 58 Invisible 2
SYMATTR InstName R53
SYMATTR Value 1k
SYMBOL res -3308 280 R0
WINDOW 0 -22 62 Invisible 2
WINDOW 3 37 62 Invisible 2
SYMATTR InstName R54
SYMATTR Value 4.8k
SYMBOL njf -3404 184 R0
WINDOW 0 56 32 Invisible 2
WINDOW 3 56 72 Invisible 2
SYMATTR InstName J_B18
SYMATTR Value DR
WIRE -2792 88 -2856 88
WIRE -2792 120 -2792 88
WIRE -2856 184 -2856 168
WIRE -2840 184 -2856 184
WIRE -2728 296 -2792 296
WIRE -2792 376 -2808 376
FLAG -2792 376 VSS
FLAG -2856 376 0
FLAG -2904 248 Acc_Q3
FLAG -2904 344 Temp_Q3
FLAG -2728 296 n19
FLAG -2792 88 VDD
SYMBOL res -2872 72 R0
WINDOW 0 -35 57 Invisible 2
WINDOW 3 34 56 Invisible 2
SYMATTR InstName R55
SYMATTR Value 100k
SYMBOL njf -2840 120 R0
WINDOW 0 56 32 Invisible 2
WINDOW 3 56 72 Invisible 2
SYMATTR InstName J_F19
SYMATTR Value DR
SYMBOL res -2808 200 R0
WINDOW 0 -24 60 Invisible 2
WINDOW 3 34 58 Invisible 2
SYMATTR InstName R56
SYMATTR Value 1k
SYMBOL res -2808 280 R0
WINDOW 0 -22 62 Invisible 2
WINDOW 3 37 62 Invisible 2
SYMATTR InstName R57
SYMATTR Value 4.8k
SYMBOL njf -2904 184 R0
WINDOW 0 56 32 Invisible 2
WINDOW 3 56 72 Invisible 2
SYMATTR InstName J_B19
SYMATTR Value DR
SYMBOL njf -2904 280 R0
WINDOW 0 56 32 Invisible 2
WINDOW 3 56 72 Invisible 2
SYMATTR InstName J_A16
SYMATTR Value DR
WIRE -2292 88 -2356 88
WIRE -2292 120 -2292 88
WIRE -2356 184 -2356 168
WIRE -2340 184 -2356 184
WIRE -2228 296 -2292 296
WIRE -2292 376 -2308 376
FLAG -2292 376 VSS
FLAG -2356 376 0
FLAG -2404 248 Acc_Q3
FLAG -2404 344 n19
FLAG -2228 296 n20
FLAG -2292 88 VDD
SYMBOL res -2372 72 R0
WINDOW 0 -35 57 Invisible 2
WINDOW 3 34 56 Invisible 2
SYMATTR InstName R58
SYMATTR Value 100k
SYMBOL njf -2340 120 R0
WINDOW 0 56 32 Invisible 2
WINDOW 3 56 72 Invisible 2
SYMATTR InstName J_F20
SYMATTR Value DR
SYMBOL res -2308 200 R0
WINDOW 0 -24 60 Invisible 2
WINDOW 3 34 58 Invisible 2
SYMATTR InstName R59
SYMATTR Value 1k
SYMBOL res -2308 280 R0
WINDOW 0 -22 62 Invisible 2
WINDOW 3 37 62 Invisible 2
SYMATTR InstName R60
SYMATTR Value 4.8k
SYMBOL njf -2404 184 R0
WINDOW 0 56 32 Invisible 2
WINDOW 3 56 72 Invisible 2
SYMATTR InstName J_B20
SYMATTR Value DR
SYMBOL njf -2404 280 R0
WINDOW 0 56 32 Invisible 2
WINDOW 3 56 72 Invisible 2
SYMATTR InstName J_A17
SYMATTR Value DR
WIRE -1792 88 -1856 88
WIRE -1792 120 -1792 88
WIRE -1856 184 -1856 168
WIRE -1840 184 -1856 184
WIRE -1728 296 -1792 296
WIRE -1792 376 -1808 376
FLAG -1792 376 VSS
FLAG -1856 376 0
FLAG -1904 248 Temp_Q3
FLAG -1904 344 n19
FLAG -1728 296 n21
FLAG -1792 88 VDD
SYMBOL res -1872 72 R0
WINDOW 0 -35 57 Invisible 2
WINDOW 3 34 56 Invisible 2
SYMATTR InstName R61
SYMATTR Value 100k
SYMBOL njf -1840 120 R0
WINDOW 0 56 32 Invisible 2
WINDOW 3 56 72 Invisible 2
SYMATTR InstName J_F21
SYMATTR Value DR
SYMBOL res -1808 200 R0
WINDOW 0 -24 60 Invisible 2
WINDOW 3 34 58 Invisible 2
SYMATTR InstName R62
SYMATTR Value 1k
SYMBOL res -1808 280 R0
WINDOW 0 -22 62 Invisible 2
WINDOW 3 37 62 Invisible 2
SYMATTR InstName R63
SYMATTR Value 4.8k
SYMBOL njf -1904 184 R0
WINDOW 0 56 32 Invisible 2
WINDOW 3 56 72 Invisible 2
SYMATTR InstName J_B21
SYMATTR Value DR
SYMBOL njf -1904 280 R0
WINDOW 0 56 32 Invisible 2
WINDOW 3 56 72 Invisible 2
SYMATTR InstName J_A18
SYMATTR Value DR
WIRE -1292 88 -1356 88
WIRE -1292 120 -1292 88
WIRE -1356 184 -1356 168
WIRE -1340 184 -1356 184
WIRE -1228 296 -1292 296
WIRE -1292 376 -1308 376
FLAG -1292 376 VSS
FLAG -1356 376 0
FLAG -1404 248 n20
FLAG -1404 344 n21
FLAG -1228 296 n22
FLAG -1292 88 VDD
SYMBOL res -1372 72 R0
WINDOW 0 -35 57 Invisible 2
WINDOW 3 34 56 Invisible 2
SYMATTR InstName R64
SYMATTR Value 100k
SYMBOL njf -1340 120 R0
WINDOW 0 56 32 Invisible 2
WINDOW 3 56 72 Invisible 2
SYMATTR InstName J_F22
SYMATTR Value DR
SYMBOL res -1308 200 R0
WINDOW 0 -24 60 Invisible 2
WINDOW 3 34 58 Invisible 2
SYMATTR InstName R65
SYMATTR Value 1k
SYMBOL res -1308 280 R0
WINDOW 0 -22 62 Invisible 2
WINDOW 3 37 62 Invisible 2
SYMATTR InstName R66
SYMATTR Value 4.8k
SYMBOL njf -1404 184 R0
WINDOW 0 56 32 Invisible 2
WINDOW 3 56 72 Invisible 2
SYMATTR InstName J_B22
SYMATTR Value DR
SYMBOL njf -1404 280 R0
WINDOW 0 56 32 Invisible 2
WINDOW 3 56 72 Invisible 2
SYMATTR InstName J_A19
SYMATTR Value DR
WIRE -792 88 -856 88
WIRE -792 120 -792 88
WIRE -856 184 -856 168
WIRE -840 184 -856 184
WIRE -728 296 -792 296
WIRE -792 376 -808 376
FLAG -792 376 VSS
FLAG -856 376 0
FLAG -904 248 Acc_Q3
FLAG -904 344 Temp_Q3
FLAG -728 296 n23
FLAG -792 88 VDD
SYMBOL res -872 72 R0
WINDOW 0 -35 57 Invisible 2
WINDOW 3 34 56 Invisible 2
SYMATTR InstName R67
SYMATTR Value 100k
SYMBOL njf -840 120 R0
WINDOW 0 56 32 Invisible 2
WINDOW 3 56 72 Invisible 2
SYMATTR InstName J_F23
SYMATTR Value DR
SYMBOL res -808 200 R0
WINDOW 0 -24 60 Invisible 2
WINDOW 3 34 58 Invisible 2
SYMATTR InstName R68
SYMATTR Value 1k
SYMBOL res -808 280 R0
WINDOW 0 -22 62 Invisible 2
WINDOW 3 37 62 Invisible 2
SYMATTR InstName R69
SYMATTR Value 4.8k
SYMBOL njf -904 184 R0
WINDOW 0 56 32 Invisible 2
WINDOW 3 56 72 Invisible 2
SYMATTR InstName J_B23
SYMATTR Value DR
SYMBOL njf -904 280 R0
WINDOW 0 56 32 Invisible 2
WINDOW 3 56 72 Invisible 2
SYMATTR InstName J_A20
SYMATTR Value DR
WIRE -292 88 -356 88
WIRE -292 120 -292 88
WIRE -356 184 -356 168
WIRE -340 184 -356 184
WIRE -228 296 -292 296
WIRE -292 376 -308 376
FLAG -292 376 VSS
FLAG -404 248 n23
FLAG -228 296 n24
FLAG -356 280 0
FLAG -292 88 VDD
SYMBOL res -372 72 R0
WINDOW 0 -35 57 Invisible 2
WINDOW 3 34 56 Invisible 2
SYMATTR InstName R70
SYMATTR Value 100k
SYMBOL njf -340 120 R0
WINDOW 0 56 32 Invisible 2
WINDOW 3 56 72 Invisible 2
SYMATTR InstName J_F24
SYMATTR Value DR
SYMBOL res -308 200 R0
WINDOW 0 -24 60 Invisible 2
WINDOW 3 34 58 Invisible 2
SYMATTR InstName R71
SYMATTR Value 1k
SYMBOL res -308 280 R0
WINDOW 0 -22 62 Invisible 2
WINDOW 3 37 62 Invisible 2
SYMATTR InstName R72
SYMATTR Value 4.8k
SYMBOL njf -404 184 R0
WINDOW 0 56 32 Invisible 2
WINDOW 3 56 72 Invisible 2
SYMATTR InstName J_B24
SYMATTR Value DR
WIRE -5792 688 -5856 688
WIRE -5792 720 -5792 688
WIRE -5856 784 -5856 768
WIRE -5840 784 -5856 784
WIRE -5728 896 -5792 896
WIRE -5792 976 -5808 976
FLAG -5792 976 VSS
FLAG -5856 976 0
FLAG -5904 848 n4
FLAG -5904 944 CarryInputIn
FLAG -5728 896 n25
FLAG -5792 688 VDD
SYMBOL res -5872 672 R0
WINDOW 0 -35 57 Invisible 2
WINDOW 3 34 56 Invisible 2
SYMATTR InstName R73
SYMATTR Value 100k
SYMBOL njf -5840 720 R0
WINDOW 0 56 32 Invisible 2
WINDOW 3 56 72 Invisible 2
SYMATTR InstName J_F25
SYMATTR Value DR
SYMBOL res -5808 800 R0
WINDOW 0 -24 60 Invisible 2
WINDOW 3 34 58 Invisible 2
SYMATTR InstName R74
SYMATTR Value 1k
SYMBOL res -5808 880 R0
WINDOW 0 -22 62 Invisible 2
WINDOW 3 37 62 Invisible 2
SYMATTR InstName R75
SYMATTR Value 4.8k
SYMBOL njf -5904 784 R0
WINDOW 0 56 32 Invisible 2
WINDOW 3 56 72 Invisible 2
SYMATTR InstName J_B25
SYMATTR Value DR
SYMBOL njf -5904 880 R0
WINDOW 0 56 32 Invisible 2
WINDOW 3 56 72 Invisible 2
SYMATTR InstName J_A21
SYMATTR Value DR
WIRE -5292 688 -5356 688
WIRE -5292 720 -5292 688
WIRE -5356 784 -5356 768
WIRE -5340 784 -5356 784
WIRE -5228 896 -5292 896
WIRE -5292 976 -5308 976
FLAG -5292 976 VSS
FLAG -5404 848 n25
FLAG -5228 896 n26
FLAG -5356 880 0
FLAG -5292 688 VDD
SYMBOL res -5372 672 R0
WINDOW 0 -35 57 Invisible 2
WINDOW 3 34 56 Invisible 2
SYMATTR InstName R76
SYMATTR Value 100k
SYMBOL njf -5340 720 R0
WINDOW 0 56 32 Invisible 2
WINDOW 3 56 72 Invisible 2
SYMATTR InstName J_F26
SYMATTR Value DR
SYMBOL res -5308 800 R0
WINDOW 0 -24 60 Invisible 2
WINDOW 3 34 58 Invisible 2
SYMATTR InstName R77
SYMATTR Value 1k
SYMBOL res -5308 880 R0
WINDOW 0 -22 62 Invisible 2
WINDOW 3 37 62 Invisible 2
SYMATTR InstName R78
SYMATTR Value 4.8k
SYMBOL njf -5404 784 R0
WINDOW 0 56 32 Invisible 2
WINDOW 3 56 72 Invisible 2
SYMATTR InstName J_B26
SYMATTR Value DR
WIRE -4792 688 -4856 688
WIRE -4792 720 -4792 688
WIRE -4856 784 -4856 768
WIRE -4856 784 -4936 784
WIRE -4840 784 -4856 784
WIRE -4728 896 -4792 896
WIRE -4792 976 -4808 976
FLAG -4792 976 VSS
FLAG -4904 848 n26
FLAG -4728 896 n27
FLAG -4856 880 0
FLAG -4984 848 n6
FLAG -4936 880 0
FLAG -4792 688 VDD
SYMBOL res -4872 672 R0
WINDOW 0 -35 57 Invisible 2
WINDOW 3 34 56 Invisible 2
SYMATTR InstName R79
SYMATTR Value 100k
SYMBOL njf -4840 720 R0
WINDOW 0 56 32 Invisible 2
WINDOW 3 56 72 Invisible 2
SYMATTR InstName J_F27
SYMATTR Value DR
SYMBOL res -4808 800 R0
WINDOW 0 -24 60 Invisible 2
WINDOW 3 34 58 Invisible 2
SYMATTR InstName R80
SYMATTR Value 1k
SYMBOL res -4808 880 R0
WINDOW 0 -22 62 Invisible 2
WINDOW 3 37 62 Invisible 2
SYMATTR InstName R81
SYMATTR Value 4.8k
SYMBOL njf -4904 784 R0
WINDOW 0 56 32 Invisible 2
WINDOW 3 56 72 Invisible 2
SYMATTR InstName J_B27
SYMATTR Value DR
SYMBOL njf -4984 784 R0
WINDOW 0 56 32 Invisible 2
WINDOW 3 56 72 Invisible 2
SYMATTR InstName J_B28
SYMATTR Value DR
WIRE -4292 688 -4356 688
WIRE -4292 720 -4292 688
WIRE -4356 784 -4356 768
WIRE -4340 784 -4356 784
WIRE -4228 896 -4292 896
WIRE -4292 976 -4308 976
FLAG -4292 976 VSS
FLAG -4404 848 n27
FLAG -4228 896 n28
FLAG -4356 880 0
FLAG -4292 688 VDD
SYMBOL res -4372 672 R0
WINDOW 0 -35 57 Invisible 2
WINDOW 3 34 56 Invisible 2
SYMATTR InstName R82
SYMATTR Value 100k
SYMBOL njf -4340 720 R0
WINDOW 0 56 32 Invisible 2
WINDOW 3 56 72 Invisible 2
SYMATTR InstName J_F28
SYMATTR Value DR
SYMBOL res -4308 800 R0
WINDOW 0 -24 60 Invisible 2
WINDOW 3 34 58 Invisible 2
SYMATTR InstName R83
SYMATTR Value 1k
SYMBOL res -4308 880 R0
WINDOW 0 -22 62 Invisible 2
WINDOW 3 37 62 Invisible 2
SYMATTR InstName R84
SYMATTR Value 4.8k
SYMBOL njf -4404 784 R0
WINDOW 0 56 32 Invisible 2
WINDOW 3 56 72 Invisible 2
SYMATTR InstName J_B29
SYMATTR Value DR
WIRE -3792 688 -3856 688
WIRE -3792 720 -3792 688
WIRE -3856 784 -3856 768
WIRE -3840 784 -3856 784
WIRE -3728 896 -3792 896
WIRE -3792 976 -3808 976
FLAG -3792 976 VSS
FLAG -3856 976 0
FLAG -3904 848 n10
FLAG -3904 944 n6
FLAG -3728 896 n29
FLAG -3792 688 VDD
SYMBOL res -3872 672 R0
WINDOW 0 -35 57 Invisible 2
WINDOW 3 34 56 Invisible 2
SYMATTR InstName R85
SYMATTR Value 100k
SYMBOL njf -3840 720 R0
WINDOW 0 56 32 Invisible 2
WINDOW 3 56 72 Invisible 2
SYMATTR InstName J_F29
SYMATTR Value DR
SYMBOL res -3808 800 R0
WINDOW 0 -24 60 Invisible 2
WINDOW 3 34 58 Invisible 2
SYMATTR InstName R86
SYMATTR Value 1k
SYMBOL res -3808 880 R0
WINDOW 0 -22 62 Invisible 2
WINDOW 3 37 62 Invisible 2
SYMATTR InstName R87
SYMATTR Value 4.8k
SYMBOL njf -3904 784 R0
WINDOW 0 56 32 Invisible 2
WINDOW 3 56 72 Invisible 2
SYMATTR InstName J_B30
SYMATTR Value DR
SYMBOL njf -3904 880 R0
WINDOW 0 56 32 Invisible 2
WINDOW 3 56 72 Invisible 2
SYMATTR InstName J_A22
SYMATTR Value DR
WIRE -3292 688 -3356 688
WIRE -3292 720 -3292 688
WIRE -3356 784 -3356 768
WIRE -3340 784 -3356 784
WIRE -3228 896 -3292 896
WIRE -3292 976 -3308 976
FLAG -3292 976 VSS
FLAG -3404 848 n29
FLAG -3228 896 n30
FLAG -3356 880 0
FLAG -3292 688 VDD
SYMBOL res -3372 672 R0
WINDOW 0 -35 57 Invisible 2
WINDOW 3 34 56 Invisible 2
SYMATTR InstName R88
SYMATTR Value 100k
SYMBOL njf -3340 720 R0
WINDOW 0 56 32 Invisible 2
WINDOW 3 56 72 Invisible 2
SYMATTR InstName J_F30
SYMATTR Value DR
SYMBOL res -3308 800 R0
WINDOW 0 -24 60 Invisible 2
WINDOW 3 34 58 Invisible 2
SYMATTR InstName R89
SYMATTR Value 1k
SYMBOL res -3308 880 R0
WINDOW 0 -22 62 Invisible 2
WINDOW 3 37 62 Invisible 2
SYMATTR InstName R90
SYMATTR Value 4.8k
SYMBOL njf -3404 784 R0
WINDOW 0 56 32 Invisible 2
WINDOW 3 56 72 Invisible 2
SYMATTR InstName J_B31
SYMATTR Value DR
WIRE -2792 688 -2856 688
WIRE -2792 720 -2792 688
WIRE -2856 784 -2856 768
WIRE -2840 784 -2856 784
WIRE -2728 896 -2792 896
WIRE -2792 976 -2808 976
FLAG -2792 976 VSS
FLAG -2904 848 n10
FLAG -2904 944 n4
FLAG -2728 896 n31
FLAG -2904 1040 CarryInputIn
FLAG -2856 1072 0
FLAG -2792 688 VDD
SYMBOL res -2872 672 R0
WINDOW 0 -35 57 Invisible 2
WINDOW 3 34 56 Invisible 2
SYMATTR InstName R91
SYMATTR Value 100k
SYMBOL njf -2840 720 R0
WINDOW 0 56 32 Invisible 2
WINDOW 3 56 72 Invisible 2
SYMATTR InstName J_F31
SYMATTR Value DR
SYMBOL res -2808 800 R0
WINDOW 0 -24 60 Invisible 2
WINDOW 3 34 58 Invisible 2
SYMATTR InstName R92
SYMATTR Value 1k
SYMBOL res -2808 880 R0
WINDOW 0 -22 62 Invisible 2
WINDOW 3 37 62 Invisible 2
SYMATTR InstName R93
SYMATTR Value 4.8k
SYMBOL njf -2904 784 R0
WINDOW 0 56 32 Invisible 2
WINDOW 3 56 72 Invisible 2
SYMATTR InstName J_B32
SYMATTR Value DR
SYMBOL njf -2904 880 R0
WINDOW 0 56 32 Invisible 2
WINDOW 3 56 72 Invisible 2
SYMATTR InstName J_A23
SYMATTR Value DR
SYMBOL njf -2904 976 R0
WINDOW 0 56 32 Invisible 2
WINDOW 3 56 72 Invisible 2
SYMATTR InstName J_A24
SYMATTR Value DR
WIRE -2292 688 -2356 688
WIRE -2292 720 -2292 688
WIRE -2356 784 -2356 768
WIRE -2340 784 -2356 784
WIRE -2228 896 -2292 896
WIRE -2292 976 -2308 976
FLAG -2292 976 VSS
FLAG -2404 848 n31
FLAG -2228 896 n32
FLAG -2356 880 0
FLAG -2292 688 VDD
SYMBOL res -2372 672 R0
WINDOW 0 -35 57 Invisible 2
WINDOW 3 34 56 Invisible 2
SYMATTR InstName R94
SYMATTR Value 100k
SYMBOL njf -2340 720 R0
WINDOW 0 56 32 Invisible 2
WINDOW 3 56 72 Invisible 2
SYMATTR InstName J_F32